<?xml version="1.0" encoding="UTF-8"?>

<!-- generated on 2022-05-28 04:09:29 by Eclipse SUMO jtrrouter Version 1.13.0
<configuration xmlns:xsi="http://www.w3.org/2001/XMLSchema-instance" xsi:noNamespaceSchemaLocation="http://sumo.dlr.de/xsd/jtrrouterConfiguration.xsd">

    <input>
        <net-file value="ingolstadt21.net.xml"/>
        <route-files value="trips.trips.xml"/>
    </input>

    <output>
        <output-file value="test.rou.xml"/>
    </output>

    <processing>
        <no-internal-links value="true"/>
        <accept-all-destinations value="true"/>
    </processing>

</configuration>
-->

<routes xmlns:xsi="http://www.w3.org/2001/XMLSchema-instance" xsi:noNamespaceSchemaLocation="http://sumo.dlr.de/xsd/routes_file.xsd">


    <vType id="passenger" speedFactor="normc(1.00,0.20,0.20,2.00)" vClass="passenger"/>
    <vehicle id="0" type="passenger" depart="0.00">
        <route edges="201963533#5 128906555 233675413#0 233675413#1 22716069#0 22716069#1 -25145012#4 -25187896 25187895#1 25145012#2 -25187889 -25145014#0 -22716069#0 233675413#2 233675413#3 22690205#0 22690205#2 22690206#0 -22879845 -23436553#4 -22690205#3 -22690205#2 23436553#0 23436553#2 -218647947#1 24634510#7 24634510#9 24634510#16 201238726#0 201238726#0.117 201238726#1 201238730 176550249#0 176550249#1 176550249#2 176550249#3 176550249#4 201201950#0 -24634411 -160314345#0 201238718#0 201238718#1 174800513 201201945#0 201201945#1 -136436468#2"/>
    </vehicle>
    <vehicle id="1" type="passenger" depart="1.00">
        <route edges="-25187891 -25145014#1 25187889 25145012#3 -25187896 -25187895#0 28111977#10 653473568#1 653473569#0 653473569#1 -22716069#2 -22716069#1 -22716069#0 -233675413#1 -233675413#0 -136728347#4 -201963533#5 -201963533#4 24634517#1 24634517#4 24634517#6 24634519 -24634519 24634517#8 24634521#0 218647954 -24634521#1 -24634521#0 24634517#9 24634517#13 24634517#17 24634517#18 24634517#19 -24634517#16 -24634521#2 -218647954 24634521#1 24634521#2 -24634517#12 -24634517#8 -24634517#7 24634518#0 24634518#1 24634518#2 -24634518#0 -24634517#5 -120125554 -24634516#2 -24634516#1 -24634516#0 10427692#5 10427692#6 10427692#7 10427692#7.50 10427692#8 -24634510#18 24634514#0 -24634514#1 -24634510#15 24634513#0 24634513#6 176550249#1 176550249#2 138300620#0 -24634510#5 -24634510#0 -24634505 160314346#0 160314346#1 -315392062#4 -24693977#1 -24693977#0 -32999434#1 32999110#0 -315358253#2 -315358253#1 -315358253#0 -315358248#1 -315358245 -202092675.36 -4942389#1 -4942389#0 386687235"/>
    </vehicle>
    <vehicle id="2" type="passenger" depart="2.00">
        <route edges="24634510#1 24634510#6 24634510#7 24634510#9 24634514#0 -24634514#1 24634510#16 201238726#0 201238726#0.117 201238726#1 201238719#0 170018165#0 170018165#1 170018165#2 170018165#2.175 306240162#0"/>
    </vehicle>
    <vehicle id="3" type="passenger" depart="3.00">
        <route edges="315358244 164078530 379897806 315358250#0 315358250#1 129379968 -201950263#10 -201950263#6 -25117391#2 -25117391#1 315358257#0 315358257#0.43 -315358254#1"/>
    </vehicle>
    <vehicle id="4" type="passenger" depart="4.00">
        <route edges="-53396619#2 -53396619#1"/>
    </vehicle>
    <vehicle id="5" type="passenger" depart="5.00">
        <route edges="-24634516#0 -10427692#4 -10427692#3 -10427692#2 -10427692#1 18809672#0 18809672#2 18809672#5 -37681424#1 -37681424#0 -37681425#6 -37681425#4 37681425#0 37681425#5 37681424#0 -28111977#0 -393420106#1"/>
    </vehicle>
    <vehicle id="6" type="passenger" depart="6.00">
        <route edges="-137454133#0 -224892361#6 224892339#0 315358255#0 -315358254#1"/>
    </vehicle>
    <vehicle id="7" type="passenger" depart="7.00">
        <route edges="224251774#0 224251774#1 286646456#0 224892361#1 224892361#2 224892361#3 137454133#0 137454133#1 137454133#2"/>
    </vehicle>
    <vehicle id="8" type="passenger" depart="8.00">
        <route edges="-24634516#1 -24634516#0 10427692#5 10427692#6 10427692#7 10427692#7.50 10427692#8 -24634510#18 -24634510#15 24634513#0 24634513#6 176550249#1 176550249#2 176550249#3 176550249#4 174800513 201201953#0 201201953#2 -173203413#7 -22724699#2 -22724699#1 -201201945#2 -136436468#2 26677213#0 201950259#0 41203918#0"/>
    </vehicle>
    <vehicle id="9" type="passenger" depart="9.00">
        <route edges="25190140#1 25190140#2 18813598#8 653473568#0 653473568#1 653473569#0 653473569#1 -22716069#2 -22716069#1 -22716069#0 -233675413#1 -233675413#0 -136728347#4 -201963533#5 -201963533#4 -201963533#1 -201963533#1.120 -201963533#1.145 -201963533#0 18809672#0 18809672#2 18809672#5 18809672#6 -170425366#6 -18809672#4 22716072#0 22716073 -26642362#2 -25145014#4 -25145014#3 -25209894#1 25145012#0 25187893 -28111977#8 25209894#0 25209894#1 -25145014#2 -25145014#1 25187889 25145012#3 -25187896 25187895#1 25145012#2 -25187889 25145014#1 25187891 233675413#0 233675413#1 22716069#0 22716069#1 22716069#2 -653473569#1 -653473569#0 -653473568#1 -653473568#0 -18813598#8 -18813598#7 25136986 -26642363 26642363 26642362#0 -28111977#5 -32395414#1 -32395414#0 -31860333#3 -31860333#2 -31860333#1 -31860333#0 -28111977#3 -32395464 31860333#3 32395414#0 32395414#1 28111977#5 28111977#6 28111977#7 28111977#8 28111977#9 28111977#10"/>
    </vehicle>
    <vehicle id="10" type="passenger" depart="10.00">
        <route edges="25187895#0 25187895#1 -25145012#1 25187893 -28111977#8 -28111977#7 -25187892 -25145014#3 -25209894#1 25145012#0 25145012#1 25145012#2 -25187889 -25145014#0 -22716069#0 -233675413#1 -233675413#0 -25187891 25145014#2 25145014#3 25187892 28111977#7 28111977#8 28111977#9 28111977#10 -653473568#0 -18813598#8 -25190140#2 -25190140#1"/>
    </vehicle>
    <vehicle id="11" type="passenger" depart="11.00">
        <route edges="-30482615#4 -30482614 -25122731#1 18813598#0 18813598#2 18813598#7 -25190140#2 -25190140#1"/>
    </vehicle>
    <vehicle id="12" type="passenger" depart="12.00">
        <route edges="402600768#1 51857517#0 51857517#0.33 51857517#1 51857516#1 -266565295#5"/>
    </vehicle>
    <vehicle id="13" type="passenger" depart="13.00">
        <route edges="-201950247#4 -201950247#3"/>
    </vehicle>
    <vehicle id="14" type="passenger" depart="14.00">
        <route edges="26677540#1 26677541 -26677540#0 26677416#3 26677416#4 -40888351#2 -40888351#0 -201950250#2 -26677539 -26677416#3 26677540#0 -26677541 -26677540#1"/>
    </vehicle>
    <vehicle id="15" type="passenger" depart="15.00">
        <route edges="25187895#1 25145012#2 -25187889 25145014#1 25187891 -136728347#4 -201963533#5 -201963533#4 24634517#1 24634517#4 24634518#0 24634518#1 24634518#2 -24634518#0 -24634517#5 -24634517#3 201963533#4 201963533#5 128906555 233675413#0 233675413#1 22716069#0 22716069#1 -25145012#4 -25145012#3 -25145012#2 -25187895#1 -25187895#0 28111977#10 -653473568#0 -18813598#8 -18813598#7 25136986 26642362#0 -28111977#5 -28111977#4 31860333#0 93386922 -93386922 -31860333#0 28111977#4 28111977#5 28111977#6 28111977#7 28111977#8 -25187893 -25145012#0 25209894#1 -25145014#2 -25145014#1 25187889 25145012#3 -25187896"/>
    </vehicle>
    <vehicle id="16" type="passenger" depart="16.00">
        <route edges="172488483#0 -83304175#2"/>
    </vehicle>
    <vehicle id="17" type="passenger" depart="17.00">
        <route edges="-32395288#3 -32395288#2 -32395288#1 201963522#6 18809673#0"/>
    </vehicle>
    <vehicle id="18" type="passenger" depart="18.00">
        <route edges="26677214#5 201950250#0 -26677540#2 26677541 26677540#1 26677540#2 -201950250#0 -26677542#1 -26677417#1 -26677417#0 26677416#2 26677416#3 26677539 -201950250#1"/>
    </vehicle>
    <vehicle id="19" type="passenger" depart="19.00">
        <route edges="28111977#3 28111977#4 28111977#5 26642362#1 26642362#2 26642362#3 -22716072#5 -22716072#3 18809672#2 18809672#5 -37681424#1 -37681424#0 -37681425#6 -31860333#4 -31860333#3 32395464 -28111977#2 -31860333#1 93386922 -93386922 -31860333#0 -28111977#3 -32395464 -31860333#2 28111977#2"/>
    </vehicle>
    <vehicle id="20" type="passenger" depart="20.00">
        <route edges="24608845 160314346#0 24634506#0 24634506#1 -31395281 31395281 -24634506#1 -24634506#0 -160314346#0 -24608845 -160314351#1 -160314351#0 -24634509#7 -24634509#0 -22716549#6 -201089423#1 -32999434#1 -24634414#5 -24634414#4 -24634414#3 24634416 315358253#1 315358253#2 402600768#0 402600768#1 51857517#0 51857517#0.33 51857517#1 51857516#1 -266565295#5"/>
    </vehicle>
    <vehicle id="21" type="passenger" depart="21.00">
        <route edges="-24634517#19 -24634517#18 -24634517#17 -24634517#16 -24634517#12 -24634517#8 24634519 -24634519 -24634517#7 -24634517#5 -24634517#3 201963533#4 201963533#5 128906555 233675413#0 233675413#1 233675413#2 233675413#3 233675413#4 233675413#7 -25145013#1 -25145013#0 -653473569#4 -653473569#2 -22716069#2 -25145012#4 -25187896 -25187895#0 -28111977#9 -25187893 25145012#1 25145012#2 -25187889 -25145014#0 22716069#1 22716069#2 -653473569#1 -25149001#5 -25149001#4"/>
    </vehicle>
    <vehicle id="22" type="passenger" depart="22.00">
        <route edges="-201201945#2 -136436468#2 26677213#0 201950259#0 201950259#4 201950263#0 26677542#0 26677542#1 -26677214#5 -26677214#4 54169231#0 54169231#1 54169231#2 26677216#1 26677216#2 26677216#3 23166741#5 201201953#0 201201953#2 -173203413#7 -22724699#2 -22724699#1 201201945#3 201201945#7 -40888359 -201201945#8 -201201945#7 -201201945#6 22724699#0 22724699#2 173203413#0 201201953#4 201201953#10 201201953#12 176550246 201238719#0 137133006#0 137133006#1 -201238726#1 -201238726#0 -201238726#0.98 -10427692#8 -10427692#7 -10427692#6 -10427692#5 -10427692#4 -10427692#3 -10427692#2 -10427692#1 18809672#0 18809672#2 18809672#5 18809672#6 18809672#7 28111977#0 28111977#1 28111977#2 -32395464 -31860333#2 -31860333#1 -31860333#0 -28111977#3 -28111977#2 31860333#2 32395464 28111977#3 28111977#4 28111977#5 28111977#6 28111977#7 25209894#0 25145012#0 25145012#1 25145012#2 25145012#3 -25187896 25187895#1 -25145012#1 -25145012#0 25209894#1 -25145014#2 25187891 -136728347#4 -26642362#5 -26642362#3 -26642362#2 -25145014#4 -25145014#3 -25209894#1 -25209894#0 -28111977#7 -28111977#6 -28111977#5 -32395414#1 -32395414#0 31860333#4 37681425#5 37681424#0 37681424#1 -18809672#5 -18809672#4 22716072#0 22716072#4 26642362#4 128906555 233675413#0 233675413#1 22716069#0 25145014#0 25187889 -25145012#2 -25187895#1 -25187895#0 28111977#10 -653473568#0 -18813598#8 -25190140#2 -25190140#1"/>
    </vehicle>
    <vehicle id="23" type="passenger" depart="23.00">
        <route edges="-201950250#2 -26677539 -26677416#3 26677540#0 26677540#1 26677541 -26677540#0 26677416#3 26677416#4 -40888351#2 40888354#0 40888354#1 40888354#2 -53396619#2 -53396619#1"/>
    </vehicle>
    <vehicle id="24" type="passenger" depart="24.00">
        <route edges="201963533#0 201963533#1 24634517#1 -120125554 -24634516#2 -24634516#1 -24634516#0 10427692#5 10427692#6 10427692#7 10427692#7.50 10427692#8 201238726#0 201238726#0.117 201238726#1 201238730 176550249#0 176550249#1 176550249#2 176550249#3 176550249#4 -201238718#1 -201238724 24634510#0 24634511 -24634511 -24634510#0 -24634505 -24608845 -160314351#1 -160314351#0 -24634506#2 -24634506#1 -24634506#0 160314346#1 201238718#0 201238718#1 201201950#0 201201950#1 201201950#2 201201950#3 201201950#4 386687239#0 386687239#1 28361235#0 202092675 315358245.27 -160314345#4 -24634417"/>
    </vehicle>
    <vehicle id="25" type="passenger" depart="25.00">
        <route edges="-31860333#3 -31860333#2 28111977#2 -32395464 31860333#3 31860333#4 37681425#5 37681425#7 201963522#5 201963522#6 25122731#0 30482614 30482615#1"/>
    </vehicle>
    <vehicle id="26" type="passenger" depart="26.00">
        <route edges="-25145014#1 25187889 -25145012#2 -25187895#1 -25187895#0 -28111977#9 -28111977#8 -28111977#7 -25187892 -25145014#3 -25145014#2 25187891 233675413#0 233675413#1 22716069#0 22716069#1 22716069#2 -653473569#1 -653473569#0 -653473568#1 -28111977#10 25187895#0 25187896 25145012#4 25145012#5 25145011#1 -233675413#6 22690205#0 23436553#0 23436553#2 23436553#3 23436553#4 22879845 -22690206#0 -22690205#2 -22690205#1 -233675413#3 -233675413#2 -233675413#1 -233675413#0 -136728347#4 -201963533#5 -201963533#4 24634517#1 24634517#4 24634517#6 24634517#8 24634521#0 218647954 24634521#2 24634517#13 24634517#17 24634517#18 24634517#19 -24634517#16 -24634517#12 -24634517#8 -24634517#7 24634518#0 -24634518#2 -24634518#1 -24634518#0 -24634517#5 -24634517#3 201963533#4 201963533#5 -26642362#5 -22716072#5 -22716072#3 -18809672#1 10427692#0 10427692#2 10427692#3 10427692#4 24634516#0 24634516#1 24634516#2 120125554"/>
    </vehicle>
    <vehicle id="27" type="passenger" depart="27.00">
        <route edges="204588664#0 23436553#3 -22690205#3 22690206#0 22690206#1 22690206#2 -22690206#2 -22690206#1 -22690206#0 -22690205#2 23436553#0 23525483#0 23525483#1 23525483#6 23525483#7 -23525483#0 -23436553#1 22690205#2 22690205#3 23436553#4 22879845"/>
    </vehicle>
    <vehicle id="28" type="passenger" depart="28.00">
        <route edges="-23436553#4 -23436553#3 -218647947#1 -24634510#6 -24634510#5 24634511 -24634511 -24634510#0 201238724 201238718#1 174800513 201201945#0 201201945#1 -136436468#2 -136436468#0"/>
    </vehicle>
    <vehicle id="29" type="passenger" depart="29.00">
        <route edges="-233675413#3 -233675413#2 -233675413#1 -233675413#0 -25187891 25145014#2 25145014#3 25145014#4 26642362#2 -22716073 -22716072#3 -18809672#1 -285549250#1 -128361102#1"/>
    </vehicle>
    <vehicle id="30" type="passenger" depart="30.00">
        <route edges="612075153#0 612075153#1 -315358254#1"/>
    </vehicle>
    <vehicle id="31" type="passenger" depart="31.00">
        <route edges="18813598#0 18813598#2 25136986 26642362#0 28111977#6 28111977#7 28111977#8 28111977#9 25187895#0 25187895#1 -25145012#1 -25145012#0 -25209894#0 -28111977#7 -28111977#6 -28111977#5 -32395414#1 -32395414#0 31860333#4 -37681425#4 37681425#0 -31860333#4 -31860333#3 -31860333#2 -31860333#1 93386922 -93386922 31860333#1 31860333#2 32395464 -28111977#2 -28111977#1 37681424#1 18809672#6 -170425366#6 -18809672#4 22716072#0 22716073 -26642362#2 -26642362#1 -26642362#0 -26642363 26642363 -25136986 -18813598#6 -18813598#1 18809673#0"/>
    </vehicle>
    <vehicle id="32" type="passenger" depart="32.00">
        <route edges="26677417#0 26677417#1 -26677542#0 -201950263#6 -201950259#6 -201950259#3 -26677213#5 -136436468#0"/>
    </vehicle>
    <vehicle id="33" type="passenger" depart="33.00">
        <route edges="-24634517#3 201963533#4 201963533#5 128906555 -25187891 -25145014#1 25187889 25145012#3 -25187896 25187895#1 -25145012#1 25187893 28111977#9 28111977#10 -653473568#0 -18813598#8 -18813598#7 -18813598#6 -18813598#1 18809673#0"/>
    </vehicle>
    <vehicle id="34" type="passenger" depart="34.00">
        <route edges="-26677541 -26677540#1 -26677540#0 26677416#3 26677416#4 40888351#3 129379925 315358242#0 315358242#1 315358242#2 315358242#3 315358251#1 386687242 23166741#0 23166741#2 -26677216#4 -53396619#6 -53396619#5 -53396619#4 -53396619#3 -40888354#2 -40888354#1 -40888354#0 40888351#1 -26677416#7 -26677416#3 26677540#0 26677540#1 26677540#2 -201950250#0 -26677214#5 26677216#0 26677216#1 26677216#2 26677216#3 23166741#5 201201945#0 201201945#1 -136436468#2 -136436468#0"/>
    </vehicle>
    <vehicle id="35" type="passenger" depart="35.00">
        <route edges="-24634510#6 -24634510#5 24634511 -24634511 -24634510#0 201238724 201238718#1 201201950#0 201201950#1 201201950#2 24634413#0 24634413#1 24634413#2 37386279 24634414#5 24634414#5.51 32999110#0 402600768#0 402600768#1 51857517#0 51857517#0.33 51857517#1 51857518#1 32978638#0"/>
    </vehicle>
    <vehicle id="36" type="passenger" depart="36.00">
        <route edges="285716192#0 285716192#0.83 201963535 -104010328 -25145012#6 -25145012#5 -25145012#4 -25145012#3 -25187889 -25145014#0 22716069#1 22716069#2 653473569#2 653473569#3 653473569#5 164051413 124812857#0 25149219#1 391891458#0 -653473569#5 -653473569#4 -653473569#2 -653473569#1 -25149001#5 -25149001#4"/>
    </vehicle>
    <vehicle id="37" type="passenger" depart="37.00">
        <route edges="224892361#1 224892361#2 224892339#0 315358255#0 -315358257#2 -315358257#0.26 25117391#0 25117391#2 201950263#0 201950263#7 129379967#0 129379921#0 129379921#1 129379920#0 129379920#1 315358246 129379922 315358252#0 447569997#0 447569997#1"/>
    </vehicle>
    <vehicle id="38" type="passenger" depart="38.00">
        <route edges="31860333#2 31860333#3 32395414#0 32395414#1 -28111977#4 31860333#0 31860333#1 -28111977#1 -28111977#0 -393420106#1"/>
    </vehicle>
    <vehicle id="39" type="passenger" depart="39.00">
        <route edges="-25145013#1 -25145012#6 -25145011#0 -653473569#2 -22716069#2 -22716069#1 -22716069#0 233675413#2 233675413#3 233675413#4 -25145011#2 -25145012#5 -25145012#4 -25187896 -25187895#0 28111977#10 653473568#1 653473569#0 653473569#1 653473569#2 25145011#0 25145011#1 -233675413#6 22690205#0 22690205#2 22690206#0 22690206#1 22690206#2 -22690206#2 -22690206#1 -22690206#0 22690205#3 23436553#4 22879845"/>
    </vehicle>
    <vehicle id="40" type="passenger" depart="40.00">
        <route edges="201089420#0 315358257#0 315358257#0.43 -612075153#1 -612075153#0 399835085#0 399835085#1 -315358258 -399835085#0 612075153#0 612075153#1 -315358257#2 -315358257#0.26 -201089420#1 -201201945#8 -40888359 28319300#0 41203916#0"/>
    </vehicle>
    <vehicle id="41" type="passenger" depart="41.00">
        <route edges="201201953#10 201201953#12 176550246 -201238726#1 -201238726#0 -201238726#0.98 -24634510#18 -24634510#15 -24634510#8 -24634510#6 -24634510#5 24634511 -24634511 24634510#1 24634510#6 204588664#0 23436553#3 -22690205#3 22690206#0 -22879845 -23436553#4 -23436553#3 -218647947#1 24634510#7 24634513#0 24634513#6 176550249#1 176550249#2 176550249#3 176550249#4 201201950#0 201201950#1 201201950#2 201201950#3 201201950#4 386687239#0 24634417 160314345#4 160314345#5 24608846#0 24608846#1 168702040#3 168702040#4 168702039#1 32999434#0 201089423#0 201089423#2 32124744 32124743 285716192#0 285716192#0.83 201963535 104010354 124812857#0 201956811#0 10425609#0 10425609#1 25149219#1 391891458#0 -653473569#5 -653473569#4 25145011#0 25145012#6 -25145013#0 653473569#5 164051413 104010475#0 104012170 -32124745 172488483#0 -83304175#2"/>
    </vehicle>
    <vehicle id="42" type="passenger" depart="42.00">
        <route edges="-379897806 -164078530 -315358244"/>
    </vehicle>
    <vehicle id="43" type="passenger" depart="43.00">
        <route edges="653473569#3 653473569#5 164051413 104010475#0 104012170 104010460#1 202070434#0 202070434#2 27920078#0 118362731"/>
    </vehicle>
    <vehicle id="44" type="passenger" depart="44.00">
        <route edges="-201238726#1 -201238726#0 -201238726#0.98 -24634510#18 24634514#0 -24634514#1 24634510#16 201238726#0 201238726#0.117 201238726#1 201238730 176550249#0 176550249#1 176550249#2 138300620#0 -24634510#5 -24634510#0 -24634505 -24608845 -160314351#1 -160314351#0 -24634506#2 -31395281 31395281 -24634506#1 -24634506#0 160314346#1 201238718#0 -201238724 24634510#0 24634511 -24634511 24634510#1 24634510#6 204588664#0 -23436553#2 23525483#0 -23525483#7 -23525483#6 -23525483#5 -23525483#0 23436553#2 23436553#3 -22690205#3 -22690205#2 23436553#0"/>
    </vehicle>
    <vehicle id="45" type="passenger" depart="45.00">
        <route edges="-201963522#1 32395327#0 -32395327#1 -201963522#0 -18809672#7 -170425366#6 -18809672#4 22716072#0 22716072#4 -26642362#3 -22716073 -22716072#3 18809672#2 18809672#5 -37681424#1 -37681424#0 37681425#7 201963522#5 32395288#0 32395288#2 32395288#3 -32395288#1 201963522#6 25122731#0 30482614 30482615#1"/>
    </vehicle>
    <vehicle id="46" type="passenger" depart="46.00">
        <route edges="25145014#1 25187891 233675413#0 233675413#1 22716069#0 25145014#0 25187889 25145012#3 -25187896 -25187895#0 -28111977#9 -25187893 25145012#1 -25187895#1 25187896 25145012#4 22716069#2 653473569#2 653473569#3 653473569#5 164051413 104010475#0 104012170 104010460#1 202070434#0 202070434#2 27920078#0 118362731"/>
    </vehicle>
    <vehicle id="47" type="passenger" depart="47.00">
        <route edges="-18809672#7 -170425366#6 -18809672#4 22716072#0 22716073 -26642362#2 -25145014#4 25187892 -28111977#6 -26642362#0 -26642363 26642363 26642362#0 26642362#1 26642362#2 26642362#3 26642362#4 128906555 233675413#0 233675413#1 233675413#2 233675413#3 22690205#0 23436553#0 23525483#0 23525483#1 23525483#6 23525483#7 -23525483#0 23436553#2 23436553#3 -22690205#3 -22690205#2 -22690205#1 -233675413#3 -233675413#2 22716069#0 22716069#1 22716069#2 -653473569#1 -25149001#5 -25149001#4"/>
    </vehicle>
    <vehicle id="48" type="passenger" depart="48.00">
        <route edges="653473569#1 653473569#2 653473569#3 653473569#5 164051413 104010475#0 104012170 104010460#1 202070434#0 202070434#2 27920078#0 118362731"/>
    </vehicle>
    <vehicle id="49" type="passenger" depart="49.00">
        <route edges="4942389#1 202092675 315358245.27 315358248#0 315358253#0 315358253#1 315358253#2 168702039#1 -24634414#5 -37386279 -24634413#2 -24634413#1 -24634413#0 201201950#3 201201950#4 272042145"/>
    </vehicle>
    <vehicle id="50" type="passenger" depart="50.00">
        <route edges="-120125554 -24634516#2 -24634516#1 -24634516#0 10427692#5 10427692#6 10427692#7 10427692#7.50 10427692#8 -24634510#18 -24634510#15 24634513#0 24634513#6 176550249#1 176550249#2 176550249#3 176550249#4 -201238718#1 -201238724 24634510#0 24634510#1 -138300620#6"/>
    </vehicle>
    <vehicle id="51" type="passenger" depart="51.00">
        <route edges="23166741#0 23166741#2 23166741#5 201201953#0 40888360#0 -22724699#1 -201201945#2 -136436468#2 26677213#0 -26676668"/>
    </vehicle>
    <vehicle id="52" type="passenger" depart="52.00">
        <route edges="-25145014#0 -22716069#0 -233675413#1 -233675413#0 -136728347#4 -26642362#5 -26642362#3 -26642362#2 -26642362#1 -28111977#5 -28111977#4 -28111977#3 -32395464 -31860333#2 -31860333#1 -31860333#0 28111977#4 -32395414#1 -32395414#0 -31860333#3 32395464 28111977#3 31860333#0 93386922 -93386922 31860333#1 -28111977#1 -28111977#0 -393420106#1"/>
    </vehicle>
    <vehicle id="53" type="passenger" depart="53.00">
        <route edges="-201963522#3 -201963522#2 32395352#0 -32395352#1 201963522#2 32395361#0 -32395361#1 201963522#3 -173177776#1 173177776#0 201963522#4 201963522#5 32395288#0 32395288#2 32395288#3 -32395288#1 201963522#6 18809673#0"/>
    </vehicle>
    <vehicle id="54" type="passenger" depart="54.00">
        <route edges="10427692#0 10427692#2 10427692#3 10427692#4 24634516#0 24634516#1 24634516#2 120125554 -24634517#3 -201963533#1 -201963533#1.120 -201963533#1.145 -201963533#0 -285549250#1 -128361102#1"/>
    </vehicle>
    <vehicle id="55" type="passenger" depart="55.00">
        <route edges="285716192#0 285716192#0.83 104010439#1 202070434#0 202070434#2 27920078#0 118362731"/>
    </vehicle>
    <vehicle id="56" type="passenger" depart="56.00">
        <route edges="137133006#0 137133006#1 201238729#1 201238729#2 201238729#3"/>
    </vehicle>
    <vehicle id="57" type="passenger" depart="57.00">
        <route edges="31860333#0 93386922 -93386922 31860333#1 31860333#2 31860333#3 32395414#0 32395414#1 28111977#5 -26642362#0 -25136986 18813598#7 -25190140#2 -25190140#1"/>
    </vehicle>
    <vehicle id="58" type="passenger" depart="58.00">
        <route edges="-26677216#0 26677214#5 201950250#0 201950250#1 -26677539 26677416#4 -40888351#2 40888354#0 40888354#1 40888354#2 53396619#3 53396619#4 -201950247#3"/>
    </vehicle>
    <vehicle id="59" type="passenger" depart="59.00">
        <route edges="201950247#7 201950247#8 -315358242#2 -315358242#1 -315358242#0 -129379925 -40888351#6 -26677416#7 26677539 201950250#2 201950247#0 201950247#1"/>
    </vehicle>
    <vehicle id="60" type="passenger" depart="60.00">
        <route edges="24634518#2 24634518#1"/>
    </vehicle>
    <vehicle id="61" type="passenger" depart="61.00">
        <route edges="25145012#0 25187893 28111977#9 25187895#0 25187896 -25145012#3 -25187889 -25145014#0 22716069#1 22716069#2 653473569#2 25145011#0 25145011#1 233675413#7 -25145013#1 -25145012#6 -25145011#0 -653473569#2 -22716069#2 -22716069#1 -22716069#0 233675413#2 233675413#3 233675413#4 -25145011#2 25145012#6 25145013#1 -233675413#8 -233675413#6 -233675413#3 -233675413#2 22716069#0 25145014#0 25145014#1 25187891 233675413#0 233675413#1"/>
    </vehicle>
    <vehicle id="62" type="passenger" depart="62.00">
        <route edges="-104010328 -25145013#0 -653473569#4 25145011#0 25145012#6 25145012#7 104010354 124812857#0 201956819#0 201956820 124812856#0 124812856#1 201956821#0 201956821#1.68 201963537#1 104010475#0 104012170 -32124745 172488483#0 -83304175#2"/>
    </vehicle>
    <vehicle id="63" type="passenger" depart="63.00">
        <route edges="-129379922 -315358246 -129379920#1 -129379920#0 -129379921#1 -129379921#0 -315358250#1 -315358250#0 -379897806 -164078530 -315358244"/>
    </vehicle>
    <vehicle id="64" type="passenger" depart="64.00">
        <route edges="286646456#0 224892361#1 224892361#2 224892339#0 315358255#0 -315358254#1"/>
    </vehicle>
    <vehicle id="65" type="passenger" depart="65.00">
        <route edges="-26677417#0 -26677416#1 -26677416#0"/>
    </vehicle>
    <vehicle id="66" type="passenger" depart="66.00">
        <route edges="286646456#0 286646456#1 -224892339#3 224892361#3 224892361#7 170018165#1 170018165#2 170018165#2.175 306240162#0"/>
    </vehicle>
    <vehicle id="67" type="passenger" depart="67.00">
        <route edges="-201238718#1 -201238724 -24634505 -24608845 -160314351#1 -160314351#0 -24634509#7 24634507 24634508 -24693977#1 -24693977#0 201089423#0 201089423#2 32124744 32124743 285716192#0 285716192#0.83 104010439#1 202070434#0 202070434#2 27920078#0 118362731"/>
    </vehicle>
    <vehicle id="68" type="passenger" depart="68.00">
        <route edges="-18813598#7 -18813598#6 -18813598#1 18809673#0"/>
    </vehicle>
    <vehicle id="69" type="passenger" depart="69.00">
        <route edges="24634521#2 24634517#13 -24634517#19 -24634517#18 -24634517#17 -24634517#16 -24634517#12 24634521#0 24634521#1 -218647954 -24634521#0 24634517#9 -24634521#2 -24634521#1 218647954"/>
    </vehicle>
    <vehicle id="70" type="passenger" depart="70.00">
        <route edges="128906555 233675413#0 233675413#1 22716069#0 22716069#1 25145012#5 -25145011#0 -653473569#2 -22716069#2 -25145012#4 -25145012#3 -25145012#2 -25187895#1 -25187895#0 -28111977#9 -28111977#8 25209894#0 25209894#1 -25145014#2 25187891 -136728347#4 -201963533#5 -201963533#4 -201963533#1 -201963533#1.120 -201963533#1.145 -201963533#0 10427692#0 10427692#2 10427692#3 10427692#4 10427692#5 10427692#6 10427692#7 10427692#7.50 10427692#8 -24634510#18 -24634510#15 -24634510#8 204588664#0 23436553#3 23436553#4 22879845 -22690206#0 22690205#3 -23436553#3 -218647947#1 -24634510#6 -24634510#5 -24634510#0 201238724 -201238718#0 -315392062#4 -24693977#1 -24693977#0 201089423#0 201089423#2 32124744 32124743 285716192#0 285716192#0.83 201963535 -104010328 -25145013#0 653473569#5 164051413 124812857#0 201956819#0 201956810"/>
    </vehicle>
    <vehicle id="71" type="passenger" depart="71.00">
        <route edges="-25145013#1 -25145013#0 653473569#5 164051413 104010475#0 104012170 -32124745 -32124743 -32124744 -201089423#2 22716549#0 24634509#0 24634507 24634508 315392062#0 -160314346#1 24634506#0 24634506#1 24634506#2 -24634509#7 -24634509#0 -22716549#6 -201089423#1 -32999434#1 -24634414#5 -37386279 -24634413#2 -24634413#1 -24634413#0 201201950#3 201201950#4 386687239#0 24634417 -160314345#3 -160314345#2 -160314345#1 -160314345#0 201238718#0 201238718#1 174800513 201201945#0 201201945#1 -136436468#2 -136436468#0"/>
    </vehicle>
    <vehicle id="72" type="passenger" depart="72.00">
        <route edges="-53396619#3 -53396619#2 -53396619#1"/>
    </vehicle>
    <vehicle id="73" type="passenger" depart="73.00">
        <route edges="173203413#0 201201953#4 201201953#10 201201953#12 176550246 201238719#0 170018165#0 170018165#1 170018165#2 170018165#2.175 -224251776#1 224251774#0 224251774#1 286646456#0 224892361#1 224892361#2 224892361#3 137454133#0 137454133#1 137454133#2"/>
    </vehicle>
    <vehicle id="74" type="passenger" depart="74.00">
        <route edges="-24634507 -24634509#0 -22716549#6 201089423#2 32124744 32124743 285716192#0 285716192#0.83 201963535 -104010328 -25145012#6 25145011#1 233675413#7 -25145013#1 25145012#7 104010354 124812857#0 201956819#0 201956810"/>
    </vehicle>
    <vehicle id="75" type="passenger" depart="75.00">
        <route edges="653473569#1 653473569#2 653473569#3 653473569#5 164051413 124812857#0 201956819#0 201956820 124812856#0 124812856#1 201956821#0 201956821#1.68 201963537#1 104010475#0 104012170 -32124745 -32124743 -32124744 -201089423#2 -201089423#1 -32999434#1 -24634414#5 -24634414#4 -24634414#3 24634416 315358253#1 315358253#2 168702039#1 32999434#0 24693977#0 24693977#1 315392062#0 160314345#0 160314345#1 24634413#1 24634413#2 37386279 24634414#5 24634414#5.51 32999110#0 402600768#0 402600768#1 51857517#0 51857517#0.33 51857517#1 51857518#1 32978638#0"/>
    </vehicle>
    <vehicle id="76" type="passenger" depart="76.00">
        <route edges="-653473569#1 -25149001#5 -25149001#4"/>
    </vehicle>
    <vehicle id="77" type="passenger" depart="77.00">
        <route edges="-201963533#4 24634517#1 24634517#4 24634518#0 -24634518#2 -24634518#1 -24634518#0 -24634517#5"/>
    </vehicle>
    <vehicle id="78" type="passenger" depart="78.00">
        <route edges="-30482614 -25122731#1 18809673#0"/>
    </vehicle>
    <vehicle id="79" type="passenger" depart="79.00">
        <route edges="-24634517#5 -120125554 -24634516#2 -24634516#1 -24634516#0 10427692#5 10427692#6 10427692#7 10427692#7.50 10427692#8 -24634510#18 24634514#0 -24634514#1 24634510#16 201238726#0 201238726#0.117 201238726#1 201238719#0 137133006#0 175770996#0 201238729#3"/>
    </vehicle>