<?xml version="1.0" encoding="UTF-8"?>

<!-- generated on 2022-05-08 16:44:00 by Eclipse SUMO polyconvert Version 1.13.0
<configuration xmlns:xsi="http://www.w3.org/2001/XMLSchema-instance" xsi:noNamespaceSchemaLocation="http://sumo.dlr.de/xsd/polyconvertConfiguration.xsd">

    <input>
        <net-file value="osm.net.xml"/>
        <osm-files value="osm_bbox.osm.xml.gz"/>
        <osm.keep-full-type value="true"/>
        <type-file value="C:\Program%20Files%20(x86)\Eclipse\Sumo\data\typemap\osmPolyconvert.typ.xml"/>
    </input>

    <output>
        <output-file value="osm.poly.xml"/>
    </output>

    <processing>
        <poi-layer-offset value="5"/>
    </processing>

    <report>
        <verbose value="true"/>
    </report>

</configuration>
-->

<additional xmlns:xsi="http://www.w3.org/2001/XMLSchema-instance" xsi:noNamespaceSchemaLocation="http://sumo.dlr.de/xsd/additional_file.xsd">
    <location netOffset="-448950.96,-3945215.16" convBoundary="-6047.60,-994.48,6390.81,7199.57" origBoundary="128.368945,35.640600,128.506394,35.714453" projParameter="+proj=utm +zone=52 +ellps=WGS84 +datum=WGS84 +units=m +no_defs"/>

    <poly id="1030287036" type="amenity.parking" color="184,184,179" fill="1" layer="-1.00" shape="2514.982958,4770.052862 2389.339070,4771.117191 2388.662238,4692.139163 2514.307183,4691.063745 2514.982958,4770.052862"/>
    <poly id="1030344545" type="landuse.residential" color="235,235,227" fill="1" layer="-3.00" shape="3020.412636,5728.784647 3015.907951,5728.919920 2999.439007,5734.987255 2999.602887,5745.212627 2987.704809,5765.041854 3012.141839,5780.304502 3031.793342,5785.599746 3033.678231,5771.115296 3033.240621,5753.759641 3028.661414,5740.108717 3020.911264,5735.669701 3020.412636,5728.784647"/>
    <poly id="1030345538" type="building.house" color="255,230,230" fill="1" layer="-1.00" shape="2998.712787,5754.600756 3018.266000,5763.456839 3023.182935,5754.235491 3031.289007,5759.249337 3023.787886,5780.785001 2993.243937,5767.152521 2998.712787,5754.600756"/>
    <poly id="1037331662" type="amenity.parking" color="184,184,179" fill="1" layer="-1.00" shape="3187.222139,4481.102988 3132.039382,4479.936333 3133.568068,4422.796479 3189.116237,4422.863136 3187.222139,4481.102988"/>
    <poly id="1037331663" type="building.yes" color="255,230,230" fill="1" layer="-1.00" shape="3230.158714,4530.317112 3223.049509,4507.285340 3261.560015,4487.302248 3264.840039,4481.417279 3275.373791,4456.460534 3290.821959,4455.279448 3282.940496,4495.605632 3271.966134,4505.924142 3230.158714,4530.317112"/>
    <poly id="1037331686" type="building.yes" color="255,230,230" fill="1" layer="-1.00" shape="3289.001551,4801.727952 3156.964260,4805.011894 3157.916051,4776.801414 3218.606219,4776.108475 3233.446384,4730.986560 3219.062321,4723.011649 3219.378856,4714.580507 3290.382747,4715.296611 3290.463390,4735.349364 3253.658510,4735.813467 3237.681223,4781.496034 3287.760454,4779.562984 3289.001551,4801.727952"/>
    <poly id="1037331689" type="amenity.parking" color="184,184,179" fill="1" layer="-1.00" shape="3154.270656,4711.515092 3154.528561,4690.539928 3194.822354,4691.043758 3184.945657,4711.904361 3154.270656,4711.515092"/>
    <poly id="1037331695" type="amenity.parking" color="184,184,179" fill="1" layer="-1.00" shape="3158.502165,4816.716089 3157.741683,4811.595976 3289.790740,4810.519163 3289.814349,4814.911217 3158.502165,4816.716089"/>
    <poly id="392538151" type="leisure.park" color="207,245,201" fill="1" layer="-2.00" shape="2043.589516,5844.113890 2027.344665,5888.990646 2015.124533,5920.524432 2015.503484,5936.726890 2016.542247,5942.987802 2015.821619,5953.384432 2028.109710,5970.231000 2062.466625,6023.845864 2094.386335,6068.667712 2136.469751,6132.400002 2143.840778,6141.898022 2166.620213,6168.203441 2199.130081,6147.816008 2213.083741,6138.633218 2227.152860,6127.408996 2248.294024,6104.211579 2266.752932,6080.186000 2283.015917,6053.288754 2292.605539,6028.590998 2298.946956,6002.158641 2296.446961,5973.578721 2296.220930,5934.050195 2292.355842,5908.949381 2288.348866,5889.317411 2280.364141,5865.270722 2260.099805,5832.462729 2226.814559,5804.196181 2212.475846,5796.100646 2184.273847,5785.763289 2161.072373,5781.565317 2122.050175,5781.103614 2084.985303,5782.860663 2065.104979,5785.399300 2058.446368,5801.795850 2043.589516,5844.113890"/>
    <poly id="436662400" type="building.university" color="255,230,230" fill="1" layer="-1.00" shape="1854.237006,5928.989568 1848.220187,5907.638652 1910.809247,5890.167011 1916.816879,5911.518017 1854.237006,5928.989568"/>
    <poly id="436662403" type="building.commercial" color="255,230,230" fill="1" layer="-1.00" shape="1932.396177,5939.437661 1926.940411,5919.714030 1936.460843,5917.010532 1941.916527,5936.723078 1932.396177,5939.437661"/>
    <poly id="468654777" type="building.commercial" color="255,230,230" fill="1" layer="-1.00" shape="2009.943164,5404.791581 2009.822666,5382.964369 2022.797326,5381.450869 2034.047172,5380.523659 2034.756232,5404.088973 2009.943164,5404.791581"/>
    <poly id="468654778" type="building.commercial" color="255,230,230" fill="1" layer="-1.00" shape="2006.914408,5378.954246 2031.730669,5378.817274 2031.591132,5353.529651 2007.357001,5354.240161 2006.914408,5378.954246"/>
    <poly id="468654779" type="building.residential" color="255,230,230" fill="1" layer="-1.00" shape="2046.730365,5377.015351 2066.356699,5377.472768 2067.407468,5359.654186 2046.062573,5360.925413 2046.730365,5377.015351"/>
    <poly id="468656660" type="building.residential" color="255,230,230" fill="1" layer="-1.00" shape="2088.712206,5367.511454 2103.719814,5367.140374 2104.188039,5347.029089 2089.178807,5347.111800 2088.712206,5367.511454"/>
    <poly id="468656661" type="building.commercial" color="255,230,230" fill="1" layer="-1.00" shape="2016.143776,5290.626843 2033.472811,5292.827130 2036.787299,5265.512910 2014.575237,5267.077369 2016.143776,5290.626843"/>
    <poly id="468656663" type="building.residential" color="255,230,230" fill="1" layer="-1.00" shape="2047.824367,5330.957824 2061.681949,5332.034900 2062.749652,5315.647016 2047.734065,5314.587417 2047.824367,5330.957824"/>
    <poly id="468656665" type="building.residential" color="255,230,230" fill="1" layer="-1.00" shape="2070.221274,5310.437226 2083.491917,5310.075690 2083.707027,5296.576273 2070.725813,5296.925120 2070.221274,5310.437226"/>
    <poly id="468656667" type="building.residential" color="255,230,230" fill="1" layer="-1.00" shape="2089.275091,5312.051358 2100.243465,5312.567666 2101.042327,5299.919071 2090.083473,5301.132967 2089.275091,5312.051358"/>
    <poly id="468656668" type="amenity.school" color="237,199,199" fill="1" layer="-2.00" shape="2017.610923,5223.682154 2143.412890,5222.899969 2142.084112,5108.078075 2016.799894,5109.522878 2017.610923,5223.682154"/>
    <poly id="468656669" type="amenity.school" color="237,199,199" fill="1" layer="-2.00" shape="2155.745616,5223.065003 2248.100719,5224.287438 2247.590728,5100.155374 2155.213609,5106.674838 2155.745616,5223.065003"/>
    <poly id="468656670" type="leisure.park" color="207,245,201" fill="1" layer="-2.00" shape="2009.670856,5103.062669 2010.507479,5048.100184 2254.717020,5046.844280 2256.870076,5099.505470 2009.670856,5103.062669"/>
    <poly id="468656671" type="amenity.hospital" color="237,199,199" fill="1" layer="-1.00" shape="2012.338078,5010.933907 2110.955387,5010.312491 2110.265392,4903.117990 2011.656003,4903.750441 2012.338078,5010.933907"/>
    <poly id="468656672" type="amenity.townhall" color="237,199,199" fill="1" layer="-1.00" shape="2147.622822,4929.187795 2205.366128,4929.169622 2205.355676,4907.519287 2147.612230,4907.537459 2147.622822,4929.187795"/>
    <poly id="468656672#1" type="building.public" color="255,230,230" fill="1" layer="-1.00" shape="2147.622822,4929.187795 2205.366128,4929.169622 2205.355676,4907.519287 2147.612230,4907.537459 2147.622822,4929.187795"/>
    <poly id="468967490" type="landuse.residential" color="235,235,227" fill="1" layer="-3.00" shape="2274.681703,5240.634359 2275.546074,5045.410029 2525.020745,5044.043920 2526.042176,5231.050210 2520.736116,5240.218498 2274.681703,5240.634359"/>
    <poly id="468996379" type="leisure.park" color="207,245,201" fill="1" layer="-2.00" shape="2007.012153,5352.411984 2031.020661,5351.802541 2030.964356,5341.598763 2006.793400,5342.286743 2007.012153,5352.411984"/>
    <poly id="468998295" type="landuse.residential" color="235,235,227" fill="1" layer="-3.00" shape="1235.907829,4700.412670 1217.970572,4604.528233 1212.258388,4529.826392 1219.078848,4413.306238 1383.703189,4417.763924 1380.691099,4570.110033 1385.642286,4625.472812 1354.781568,4635.649802 1361.387552,4669.774376 1235.907829,4700.412670"/>
    <poly id="468998296" type="landuse.residential" color="235,235,227" fill="1" layer="-3.00" shape="1394.898780,4623.890466 1389.024389,4570.085638 1396.076293,4418.471175 1547.536848,4418.391439 1542.953308,4566.897487 1556.003691,4616.137136 1436.563571,4651.064577 1430.400722,4615.229402 1394.898780,4623.890466"/>
    <poly id="469004815" type="leisure.park" color="207,245,201" fill="1" layer="-2.00" shape="2599.069860,5711.341405 2636.624585,5732.997769 2641.830701,5728.765756 2654.074277,5711.041538 2652.852467,5704.315720 2616.376375,5684.705312 2599.069860,5711.341405"/>
    <poly id="469004818" type="landuse.residential" color="235,235,227" fill="1" layer="-3.00" shape="1971.734689,5230.945243 1957.107094,5236.272297 1863.455483,5236.191391 1829.458323,5233.562472 1740.930413,5217.693585 1734.930750,5209.341787 1787.256298,5010.892505 1792.573597,4995.701080 1906.636839,5031.271736 1976.128112,5038.640504 1975.591561,5069.266813 1971.734689,5230.945243"/>
    <poly id="469004819" type="landuse.residential" color="235,235,227" fill="1" layer="-3.00" shape="1792.573597,4995.701080 1819.461831,4890.871436 1825.967669,4886.043906 1834.228907,4884.500801 1888.488033,4895.735457 1957.467269,4892.115357 1968.372368,4894.184655 1974.146150,4904.234838 1976.091357,5027.072381 1976.128112,5038.640504 1906.636839,5031.271736 1792.573597,4995.701080"/>
    <poly id="469004820" type="leisure.park" color="207,245,201" fill="1" layer="-2.00" shape="1542.322862,4918.176723 1592.517136,4963.083540 1681.274540,5019.743887 1618.939528,5174.970859 1607.228219,5167.804433 1562.683460,5144.472126 1523.243975,5116.741562 1468.332919,5076.087283 1422.458548,5038.399716 1422.926488,5029.845627 1483.156817,4964.857588 1518.764816,4934.878582 1542.322862,4918.176723"/>
    <poly id="469004824" type="amenity.school" color="237,199,199" fill="1" layer="-2.00" shape="1681.274540,5019.743887 1618.939528,5174.970859 1701.709681,5209.637177 1712.505443,5208.368252 1718.163923,5202.524933 1774.996880,4988.112207 1798.579793,4890.964985 1789.510433,4880.567169 1708.688243,4840.343488 1668.628028,4811.783869 1656.020920,4809.569119 1639.510567,4824.612126 1542.322862,4918.176723 1592.517136,4963.083540 1681.274540,5019.743887"/>
    <poly id="469004828" type="landuse.residential" color="235,235,227" fill="1" layer="-3.00" shape="1448.530758,4796.306214 1406.223566,4679.938585 1447.164405,4673.110553 1558.568049,4639.547885 1564.472551,4642.088203 1568.026274,4657.940202 1606.004224,4751.140541 1635.608847,4793.333897 1549.582411,4881.390458 1528.777224,4896.901263 1448.530758,4796.306214"/>
    <poly id="469004831" type="landuse.residential" color="235,235,227" fill="1" layer="-3.00" shape="1414.252683,5012.569305 1383.178644,4987.587654 1354.296890,4948.563216 1296.629770,4868.473259 1258.236801,4790.516099 1244.346049,4759.482559 1239.742749,4727.587297 1406.223566,4679.938585 1448.530758,4796.306214 1528.777224,4896.901263 1414.252683,5012.569305"/>
    <poly id="469004836" type="landuse.commercial" color="209,209,204" fill="1" layer="-3.00" shape="1573.273343,4511.537823 1572.751263,4424.273638 1586.036826,4416.602070 1658.562486,4418.738586 1762.706623,4414.977106 1764.096145,4556.196080 1797.565246,4639.384497 1832.743393,4663.690458 1891.344793,4685.981399 1929.571959,4690.694564 1968.183527,4688.018904 1975.764736,4697.648722 1975.108884,4745.999716 1973.553568,4787.124095 1972.581570,4861.774535 1959.128864,4870.245039 1913.814496,4871.449389 1867.606390,4868.111445 1815.913285,4856.263759 1809.063973,4854.626916 1780.914343,4844.567793 1747.920816,4830.675830 1713.201398,4812.323738 1682.282321,4795.658738 1653.842665,4769.297270 1629.660806,4740.649562 1613.762681,4714.506847 1597.658958,4677.451369 1586.206275,4637.220071 1573.273343,4511.537823"/>
    <poly id="469004838" type="leisure.park" color="207,245,201" fill="1" layer="-2.00" shape="1965.259219,4419.068898 1974.533549,4427.214208 1976.508077,4476.726342 1974.758072,4533.401904 1922.677314,4533.589870 1867.989714,4590.824499 1870.971632,4658.764948 1832.547376,4638.103702 1806.696574,4608.677277 1796.409309,4585.919301 1789.502688,4559.293882 1843.772091,4555.676863 1889.132747,4515.119677 1894.877957,4420.167795 1965.259219,4419.068898"/>
    <poly id="469004843" type="natural.water" color="181,209,209" fill="1" layer="-4.00" shape="2168.990019,4438.365108 2261.968090,4437.854134 2243.419740,4495.653355 2208.607035,4536.095263 2194.103610,4593.861280 2210.537737,4642.073913 2183.532461,4632.827987 2151.180559,4630.321853 2145.566494,4590.102113 2170.928571,4545.685756 2151.864216,4509.566187 2152.909716,4454.558265 2168.990019,4438.365108"/>
    <poly id="469004844" type="natural.water" color="181,209,209" fill="1" layer="-4.00" shape="2065.070397,4284.201482 2074.207196,4250.965710 2075.962681,4206.645971 2087.188064,4196.080579 2109.230479,4192.798118 2130.560593,4206.411802 2129.458680,4252.802016 2130.099939,4287.104125 2114.314920,4299.447010 2105.645121,4343.560815 2093.121715,4341.855180 2082.561468,4299.034083 2065.070397,4284.201482"/>
    <poly id="469004854" type="leisure.park" color="207,245,201" fill="1" layer="-2.00" shape="2768.134910,5380.640546 2704.225048,5552.017346 2627.085112,5503.258299 2546.579010,5462.836834 2540.975679,5453.994318 2541.537786,5260.357763 2548.099894,5255.874287 2743.256590,5252.892127 2768.134910,5380.640546"/>
    <poly id="469004858" type="landuse.residential" color="235,235,227" fill="1" layer="-3.00" shape="2805.952758,4877.440961 2804.753908,4669.983303 2804.048089,4425.000930 2815.343940,4415.645041 3049.531971,4413.667085 3055.816298,4883.585488 2805.952758,4877.440961"/>
    <poly id="469124638" type="landuse.industrial" color="209,209,204" fill="1" layer="-3.00" shape="2556.078837,3697.181998 2720.015855,3850.935906 2850.639082,3709.432872 2660.527107,3543.252533 2556.078837,3697.181998"/>
    <poly id="469232831" type="amenity.university" color="237,199,199" fill="1" layer="-2.00" shape="2166.382645,6192.428391 2224.722130,6150.958330 2239.773246,6148.868051 2268.921280,6168.605888 2310.832234,6201.228531 2340.150774,6186.138641 2368.887762,6168.911396 2378.772563,6125.423270 2395.813457,6106.718518 2454.002054,6062.178503 2497.348573,6044.672114 2529.552575,6032.661593 2539.893417,6016.178740 2508.723480,5980.701281 2493.755572,5964.977853 2481.402204,5924.450871 2478.592145,5898.623275 2445.885873,5865.217434 2429.848031,5859.027479 2405.942957,5838.628187 2387.150419,5818.433865 2349.313737,5821.303183 2330.045713,5803.518421 2316.084599,5778.484078 2305.347149,5767.185403 2284.905140,5756.416946 2288.376400,5727.892987 2279.168585,5685.430200 2287.675701,5643.103077 2285.530053,5629.649897 2281.389090,5603.763122 2270.302011,5584.857708 2246.327695,5584.989397 1991.019534,5590.532888 1977.966499,5590.904457 1723.020310,5598.061911 1779.934584,5618.986087 1803.121976,5661.326508 1768.345407,5705.452466 1792.612095,5728.731829 1793.991886,5763.828495 1822.362225,5788.116684 1905.256680,5869.312605 1695.479640,5879.548593 1652.072932,5913.762912 1591.441931,5951.323135 1571.291583,5992.994918 1573.176688,6042.319055 1525.973745,6063.933130 1498.015039,6102.066111 1469.045626,6153.569996 1464.079928,6173.174086 1524.859768,6393.021924 1551.855760,6480.948439 1561.831716,6508.166661 1573.082794,6517.465132 1589.902206,6526.022748 1615.765687,6527.697723 1742.981538,6488.347901 1858.297814,6459.569408 2034.801149,6415.492163 2057.262894,6403.955144 2068.129932,6392.903602 2076.135474,6376.410878 2072.773963,6267.190066 2106.048028,6241.119261 2154.684757,6202.164499 2166.382645,6192.428391"/>
    <poly id="469232833" type="amenity.parking" color="184,184,179" fill="1" layer="-1.00" shape="1723.806730,5961.223696 1833.419310,5930.458054 1844.479134,5973.742020 1747.535388,5998.503292 1730.719942,5989.180040 1723.806730,5961.223696"/>
    <poly id="469235051" type="leisure.park" color="207,245,201" fill="1" layer="-2.00" shape="1691.555578,5917.403219 1693.616309,5897.515950 1711.769825,5898.502047 1715.576109,5930.634919 1691.555578,5917.403219"/>
    <poly id="469235052" type="natural.water" color="181,209,209" fill="1" layer="-4.00" shape="1657.925678,5926.674046 1661.114190,5951.800558 1640.412660,5988.772483 1652.238261,6000.419240 1712.563623,5963.227143 1706.792108,5943.749403 1700.212305,5935.112473 1663.128651,5923.606065 1657.925678,5926.674046"/>
    <poly id="469771332" type="building.yes" color="255,230,230" fill="1" layer="-1.00" shape="2167.616557,2633.585439 2042.503278,2631.323858 2040.960159,2428.526981 2171.534783,2347.018889 2167.616557,2633.585439"/>
    <poly id="470298246" type="building.public" color="255,230,230" fill="1" layer="-1.00" shape="2225.449446,4931.931903 2236.615009,4932.025830 2236.676538,4923.462940 2252.701030,4923.596741 2252.767326,4915.898953 2225.577297,4915.682315 2225.449446,4931.931903"/>
    <poly id="470298783" type="leisure.playground" color="207,245,201" fill="1" layer="-2.00" shape="2110.119011,5535.128739 2177.710221,5535.000613 2177.629851,5489.149209 2110.038293,5489.277331 2110.119011,5535.128739"/>
    <poly id="471720029" type="amenity.community_centre" color="237,199,199" fill="1" layer="-1.00" shape="1480.435785,5506.854486 1495.755220,5468.359448 1484.503544,5452.716782 1427.386836,5436.365269 1416.121631,5462.049372 1451.756204,5498.806928 1480.435785,5506.854486"/>
    <poly id="471720029#1" type="building.yes" color="255,230,230" fill="1" layer="-1.00" shape="1480.435785,5506.854486 1495.755220,5468.359448 1484.503544,5452.716782 1427.386836,5436.365269 1416.121631,5462.049372 1451.756204,5498.806928 1480.435785,5506.854486"/>
    <poly id="471720344" type="leisure.park" color="207,245,201" fill="1" layer="-2.00" shape="1337.619686,5404.158593 1360.040550,5427.058927 1372.297540,5425.049375 1415.678570,5455.618828 1428.924285,5431.398819 1495.655531,5452.111084 1502.220377,5428.771408 1570.076387,5450.032527 1596.642083,5465.146373 1614.023268,5432.862354 1509.295587,5347.687004 1467.890289,5320.999154 1436.753734,5336.445868 1417.167656,5323.789061 1411.523257,5311.054384 1384.150791,5300.659443 1351.317243,5311.945573 1337.619686,5404.158593"/>
    <poly id="471720345" type="historic.ruins" color="128,255,128" fill="1" layer="-1.00" shape="1422.181038,5322.363535 1438.133000,5333.931506 1466.211916,5320.176666 1425.389280,5299.042556 1422.181038,5322.363535"/>
    <poly id="476017478" type="landuse.residential" color="235,235,227" fill="1" layer="-3.00" shape="2768.134910,5380.640546 2960.088942,5383.204022 2997.778683,5369.524039 3022.532653,5387.990418 3002.932975,5450.984540 2956.791882,5536.238596 2890.705303,5653.666237 2814.911850,5610.931996 2704.225048,5552.017346 2768.134910,5380.640546"/>
    <poly id="476017876" type="landuse.commercial" color="209,209,204" fill="1" layer="-3.00" shape="2001.350634,4684.153412 2006.141626,4681.697952 2138.670513,4680.279763 2389.075504,4680.036203 2516.251400,4679.262989 2522.770579,4683.408832 2521.384957,4795.827536 2521.638241,4860.422358 2513.059215,4868.410650 2211.445070,4871.338976 1996.596438,4876.826032 1997.744049,4714.308628 1998.410131,4689.094222 2001.350634,4684.153412"/>
    <poly id="476017877" type="landuse.residential" color="235,235,227" fill="1" layer="-3.00" shape="2805.952758,4877.440961 2804.753908,4669.983303 2780.437600,4414.392706 2556.686349,4413.803050 2547.916993,4420.161902 2544.934487,4863.345276 2554.184337,4870.504181 2805.952758,4877.440961"/>
    <poly id="476017878" type="leisure.park" color="207,245,201" fill="1" layer="-2.00" shape="2019.265414,4666.031030 2290.496792,4663.617894 2289.001036,4419.072236 2077.381466,4416.476003 2017.391611,4414.998922 2010.155005,4421.937697 2005.479534,4432.234124 2006.629451,4520.903408 2003.844591,4540.938732 2003.745812,4654.182349 2008.140073,4661.811152 2019.265414,4666.031030"/>
    <poly id="476018123" type="leisure.park" color="207,245,201" fill="1" layer="-2.00" shape="2197.804066,3956.818691 2249.842357,3938.398408 2314.250394,3908.375570 2348.404111,3889.144471 2355.037309,3889.207948 2359.853138,3892.841715 2372.960446,3911.835981 2303.758808,3968.703617 2176.282325,4018.693788 2177.896591,4313.870826 2294.822914,4334.002693 2516.254056,4340.144146 2518.857792,4376.187982 2516.827466,4382.177321 2508.876801,4384.361383 2289.798148,4391.195226 2018.014436,4388.487077 2009.403653,4385.806113 2004.801729,4381.561328 2001.415106,3995.832873 2001.916100,3989.874038 2006.583107,3986.199219 2015.040977,3984.056280 2083.794149,3980.815635 2134.901145,3972.459681 2197.804066,3956.818691"/>
    <poly id="476018124" type="landuse.residential" color="235,235,227" fill="1" layer="-3.00" shape="2177.896591,4313.870826 2294.822914,4334.002693 2516.254056,4340.144146 2512.128892,4247.542624 2504.214797,4210.063743 2497.384745,4177.237323 2463.514043,4069.337029 2423.571827,3986.436759 2372.960446,3911.835981 2303.758808,3968.703617 2176.282325,4018.693788 2177.896591,4313.870826"/>
    <poly id="476018820" type="tourism.museum" color="207,245,201" fill="1" layer="-2.00" shape="2555.437640,4387.268207 2779.799518,4388.542190 2790.115060,4378.614844 2790.308871,4236.023172 2788.548748,4138.517446 2785.236540,4080.128311 2767.940021,4012.686951 2735.467743,3930.155129 2688.812185,3857.050610 2466.261074,3999.124736 2496.140321,4075.336612 2529.683110,4194.518739 2539.613605,4279.823718 2542.860179,4377.288070 2555.437640,4387.268207"/>
    <poly id="476018825" type="amenity.university" color="237,199,199" fill="1" layer="-2.00" shape="2802.809336,4043.497943 3074.792958,3927.207831 3462.688523,4114.507217 3456.337911,4155.346307 3479.396330,4184.559472 3349.065329,4305.144543 3183.711292,4381.976217 3109.343834,4390.595814 3056.526432,4388.551733 2813.871847,4389.488493 2808.305390,4382.508966 2810.156811,4161.836181 2799.134840,4046.701113 2802.809336,4043.497943"/>
    <poly id="476021734" type="landuse.residential" color="235,235,227" fill="1" layer="-3.00" shape="2283.319199,5424.693000 2275.794031,5416.859424 2277.321822,5339.189083 2276.648816,5266.045033 2284.209870,5257.318963 2384.317092,5258.322794 2514.052916,5257.313565 2523.961504,5269.193769 2519.663905,5441.422171 2514.754616,5448.669489 2506.573871,5451.620136 2461.292231,5431.803373 2448.962621,5425.537636 2283.319199,5424.693000"/>
    <poly id="476021737" type="leisure.park" color="207,245,201" fill="1" layer="-2.00" shape="1361.387552,4669.774376 1354.781568,4635.649802 1385.642286,4625.472812 1430.400722,4615.229402 1436.563571,4651.064577 1361.387552,4669.774376"/>
    <poly id="476021738" type="leisure.park" color="207,245,201" fill="1" layer="-2.00" shape="1391.252050,2730.422866 1366.613951,2663.357904 1390.885772,2663.222309 1444.186738,2644.557472 1524.523185,2598.679400 1745.706612,2563.610423 1808.879746,2554.209801 1813.717680,2613.965430 1684.812143,2655.762582 1644.599871,2678.146478 1605.489453,2709.852269 1521.612497,2795.889008 1391.252050,2730.422866"/>
    <poly id="492187745" type="building.yes" color="255,230,230" fill="1" layer="-1.00" shape="2582.124364,3999.590156 2578.160168,4001.098019 2577.576628,4026.833172 2580.898940,4035.388679 2586.550068,4042.888899 2649.190533,4078.705384 2652.146146,4083.081469 2652.545460,4088.281145 2652.026412,4092.665062 2610.693251,4164.285389 2619.870251,4217.729045 2696.817799,4084.413280 2697.250720,4075.837299 2695.031906,4068.839628 2691.728123,4063.666846 2688.670701,4060.533535 2582.124364,3999.590156"/>
    <poly id="612344174" type="amenity.place_of_worship" color="237,199,199" fill="1" layer="-1.00" shape="952.789956,5397.946496 954.765453,5360.002691 988.258537,5361.510866 986.294632,5399.931528 952.789956,5397.946496"/>
    <poly id="612344174#1" type="building.yes" color="255,230,230" fill="1" layer="-1.00" shape="952.789956,5397.946496 954.765453,5360.002691 988.258537,5361.510866 986.294632,5399.931528 952.789956,5397.946496"/>
    <poly id="612344176" type="amenity.place_of_worship" color="237,199,199" fill="1" layer="-1.00" shape="957.662707,5349.138942 957.553760,5329.818300 981.349689,5331.614057 981.943584,5351.908010 957.662707,5349.138942"/>
    <poly id="612344176#1" type="building.yes" color="255,230,230" fill="1" layer="-1.00" shape="957.662707,5349.138942 957.553760,5329.818300 981.349689,5331.614057 981.943584,5351.908010 957.662707,5349.138942"/>
    <poly id="612344424" type="building.school" color="255,230,230" fill="1" layer="-1.00" shape="1091.793648,5401.056757 1100.453986,5309.692403 1099.650503,5276.211930 1208.962180,5287.410326 1215.818414,5374.184377 1225.832565,5409.432186 1153.610782,5411.667642 1091.793648,5401.056757"/>
    <poly id="832685159" type="man_made.works" color="255,230,230" fill="1" layer="-1.00" shape="1679.784805,3280.744676 1834.807065,3310.818897 1930.108254,3338.807690 1929.231898,3442.239551 1943.783869,3440.706179 1940.206226,3495.827872 1744.094315,3498.355410 1741.923884,3544.285743 1666.673414,3543.250527 1668.325341,3316.089985 1679.784805,3280.744676"/>
    <poly id="832685160" type="man_made.works" color="255,230,230" fill="1" layer="-1.00" shape="2641.651659,3491.980143 2691.274223,3423.076733 2734.805737,3393.847219 2739.950337,3358.049646 2640.483041,3277.390973 2486.249054,3303.365239 2473.686164,3314.558511 2438.072571,3371.773867 2641.651659,3491.980143"/>
    <poly id="832685161" type="man_made.works" color="255,230,230" fill="1" layer="-1.00" shape="1053.062740,3852.681198 1217.515292,3927.911114 1303.120275,3742.427163 1038.241453,3621.265024 1053.062740,3852.681198"/>
    <poly id="832685162" type="man_made.works" color="255,230,230" fill="1" layer="-1.00" shape="1393.326181,4038.029537 1552.257420,4146.614950 1611.036399,4019.535387 1438.468632,3940.428298 1393.326181,4038.029537"/>
    <poly id="832685163" type="man_made.works" color="255,230,230" fill="1" layer="-1.00" shape="1815.671142,4324.299772 1956.824579,4030.595448 1831.312717,3970.808358 1824.433497,3985.132157 1665.159862,3909.274485 1611.036399,4019.535387 1552.257420,4146.614950 1805.937641,4321.514310 1815.671142,4324.299772"/>
    <poly id="884285605" type="landuse.industrial" color="209,209,204" fill="1" layer="-3.00" shape="1041.747741,4369.803717 971.132218,3208.399892 1170.007952,2660.155235 1483.646407,2836.262432 1595.515713,2698.372721 1734.887375,2618.339735 1855.170049,2596.400193 1854.998904,2565.467344 2226.099531,2325.479199 2422.326709,2268.148679 2525.386239,2281.571882 2521.531834,2644.945274 2382.208167,2736.567114 2232.559178,2847.580113 2189.545709,3014.086919 2303.492187,3255.119900 2439.697836,3306.569976 2699.689076,3266.487601 2785.721482,3376.212656 3048.817836,3552.648913 3014.057040,3722.944760 3052.694544,3910.246458 2804.763609,4021.781537 2732.035787,3859.799097 2554.623817,3727.380625 2405.914550,3875.109496 2197.804066,3956.818691 1989.512668,3978.851121 1977.024017,4401.390800 1336.884240,4372.018608 1041.747741,4369.803717"/>
    <poly id="886096265" type="landuse.residential" color="235,235,227" fill="1" layer="-3.00" shape="2556.643190,4858.500977 2632.952522,4860.014708 2661.528914,4860.579968 2697.109143,4861.284664 2727.567675,4861.884260 2784.032738,4863.008126 2793.266960,4677.410353 2556.311233,4679.975939 2554.908124,4774.349051 2558.375485,4822.788367 2556.643190,4858.500977"/>
    <poly id="886096267" type="landuse.residential" color="235,235,227" fill="1" layer="-3.00" shape="2545.338931,5018.633520 2793.824691,5021.650373 2798.272656,4892.722219 2544.113356,4893.584866 2545.338931,5018.633520"/>
    <poly id="886096268" type="landuse.residential" color="235,235,227" fill="1" layer="-3.00" shape="2575.695191,5222.782248 2773.569268,5220.240685 2779.384120,5071.540208 2577.708545,5052.862327 2575.695191,5222.782248"/>
    <poly id="886096269" type="landuse.residential" color="235,235,227" fill="1" layer="-3.00" shape="2834.191622,4637.414523 3040.208207,4640.691171 3039.052661,4426.822599 2830.094462,4424.293893 2834.191622,4637.414523"/>
    <poly id="886096270" type="landuse.residential" color="235,235,227" fill="1" layer="-3.00" shape="2834.985717,4843.776314 3031.247440,4846.040849 3029.819602,4683.970372 2940.614090,4685.562062 2943.290689,4767.146789 2837.908683,4767.163418 2834.985717,4843.776314"/>
    <poly id="886096271" type="amenity.school" color="237,199,199" fill="1" layer="-2.00" shape="2838.424446,4758.830997 2936.568277,4762.180980 2940.614090,4685.562062 2838.590866,4686.115051 2838.424446,4758.830997"/>
    <poly id="886096272" type="landuse.residential" color="235,235,227" fill="1" layer="-3.00" shape="2791.368354,5310.649667 2973.894499,5312.854305 3024.808145,5253.284401 3036.514207,5050.459669 2870.678498,5057.102783 2849.666868,5078.257100 2814.450059,5080.999253 2813.207022,5205.329291 2771.847263,5254.655514 2791.368354,5310.649667"/>