<?xml version="1.0" encoding="UTF-8"?>

<!-- generated on 2022-05-08 16:44:03 by Eclipse SUMO duarouter Version 1.13.0
<configuration xmlns:xsi="http://www.w3.org/2001/XMLSchema-instance" xsi:noNamespaceSchemaLocation="http://sumo.dlr.de/xsd/duarouterConfiguration.xsd">

    <input>
        <net-file value="C:\Users\yoosh\Sumo\2022-05-08-16-43-40\osm.net.xml"/>
        <route-files value="C:\Users\yoosh\Sumo\2022-05-08-16-43-40\osm.passenger.trips.xml"/>
    </input>

    <output>
        <output-file value="C:\Users\yoosh\Sumo\2022-05-08-16-43-40\osm.passenger.trips.xml.tmp"/>
        <write-trips value="true"/>
    </output>

    <time>
        <begin value="0"/>
        <end value="3600"/>
    </time>

    <report>
        <no-warnings value="true"/>
        <ignore-errors value="true"/>
        <no-step-log value="true"/>
    </report>

</configuration>
-->

<routes xmlns:xsi="http://www.w3.org/2001/XMLSchema-instance" xsi:noNamespaceSchemaLocation="http://sumo.dlr.de/xsd/routes_file.xsd">
    <vType id="veh_passenger" vClass="passenger"/>
    <trip id="veh0" type="veh_passenger" depart="0.00" departLane="best" from="469158220#2" to="-37398225#11"/>
    <trip id="veh1" type="veh_passenger" depart="1.61" departLane="best" from="-542622639#1" to="-470605352#0"/>
    <trip id="veh2" type="veh_passenger" depart="3.22" departLane="best" from="563903802#2" to="-435784043#5"/>
    <trip id="veh3" type="veh_passenger" depart="4.83" departLane="best" from="-889589493#2" to="-37398225#8"/>
    <trip id="veh4" type="veh_passenger" depart="6.44" departLane="best" from="-470298782" to="392180548#0"/>
    <trip id="veh5" type="veh_passenger" depart="8.05" departLane="best" from="-37398225#4" to="-469158244"/>
    <trip id="veh6" type="veh_passenger" depart="9.66" departLane="best" from="469158227#3" to="435784043#5"/>
    <trip id="veh7" type="veh_passenger" depart="11.27" departLane="best" from="-470605351#1" to="469074077#1"/>
    <trip id="veh9" type="veh_passenger" depart="14.49" departLane="best" from="553591151#1" to="476021735#0"/>
    <trip id="veh10" type="veh_passenger" depart="16.10" departLane="best" from="-606024805" to="-469124635#6"/>
    <trip id="veh11" type="veh_passenger" depart="17.71" departLane="best" from="887744048#0" to="-563903802#0"/>
    <trip id="veh12" type="veh_passenger" depart="19.32" departLane="best" from="553592343#2" to="469074096#4"/>
    <trip id="veh13" type="veh_passenger" depart="20.93" departLane="best" from="553591156#1" to="542622631#6"/>
    <trip id="veh14" type="veh_passenger" depart="22.54" departLane="best" from="404178421#4" to="889589488#3"/>
    <trip id="veh15" type="veh_passenger" depart="24.15" departLane="best" from="-747964667" to="468783408#1"/>
    <trip id="veh16" type="veh_passenger" depart="25.76" departLane="best" from="553591190#2" to="469158201#1"/>
    <trip id="veh17" type="veh_passenger" depart="27.37" departLane="best" from="553614798#0" to="469004845#2"/>
    <trip id="veh18" type="veh_passenger" depart="28.98" departLane="best" from="476243098#1" to="-392180545#6"/>
    <trip id="veh19" type="veh_passenger" depart="30.59" departLane="best" from="-471658993" to="-542622646#3"/>
    <trip id="veh20" type="veh_passenger" depart="32.20" departLane="best" from="-404178421#1" to="-471720026"/>
    <trip id="veh21" type="veh_passenger" depart="33.81" departLane="best" from="-468783424#0" to="-542622640#1"/>
    <trip id="veh22" type="veh_passenger" depart="35.42" departLane="best" from="469158218#1" to="-746033023"/>
    <trip id="veh23" type="veh_passenger" depart="37.03" departLane="best" from="-746033032#1" to="-469929466#3"/>
    <trip id="veh24" type="veh_passenger" depart="38.64" departLane="best" from="-542622632#3" to="749091337"/>
    <trip id="veh25" type="veh_passenger" depart="40.25" departLane="best" from="469158226" to="469124633#1"/>
    <trip id="veh26" type="veh_passenger" depart="41.86" departLane="best" from="-469158205" to="-747964666"/>
    <trip id="veh27" type="veh_passenger" depart="43.47" departLane="best" from="949044313#1" to="469158218#1"/>
    <trip id="veh28" type="veh_passenger" depart="45.08" departLane="best" from="468783426" to="470605351#1"/>
    <trip id="veh29" type="veh_passenger" depart="46.69" departLane="best" from="553591205" to="542686778#1"/>
    <trip id="veh30" type="veh_passenger" depart="48.30" departLane="best" from="-471719156#0" to="-385977220"/>
    <trip id="veh31" type="veh_passenger" depart="49.91" departLane="best" from="-553614798#5" to="-542622632#3"/>
    <trip id="veh32" type="veh_passenger" depart="51.52" departLane="best" from="-469934362#0" to="867910973#0"/>
    <trip id="veh33" type="veh_passenger" depart="53.13" departLane="best" from="553614804#0" to="-553614798#2"/>
    <trip id="veh34" type="veh_passenger" depart="54.74" departLane="best" from="469158243#2" to="-867910977"/>
    <trip id="veh35" type="veh_passenger" depart="56.35" departLane="best" from="745539606#1" to="150999761#1-AddedOnRampEdge"/>
    <trip id="veh36" type="veh_passenger" depart="57.96" departLane="best" from="-542622631#9" to="-477948309#0"/>
    <trip id="veh37" type="veh_passenger" depart="59.57" departLane="best" from="469074077#0" to="606026174#0"/>
    <trip id="veh38" type="veh_passenger" depart="61.18" departLane="best" from="-887744048#0" to="-470298781"/>
    <trip id="veh39" type="veh_passenger" depart="62.79" departLane="best" from="949044355#0" to="392180550#4"/>
    <trip id="veh40" type="veh_passenger" depart="64.40" departLane="best" from="-468783406#2" to="-392180545#9"/>
    <trip id="veh41" type="veh_passenger" depart="66.01" departLane="best" from="550909499#1-AddedOffRampEdge" to="-889589493#1"/>
    <trip id="veh42" type="veh_passenger" depart="67.62" departLane="best" from="-392180561#3" to="-749707934#0"/>
    <trip id="veh43" type="veh_passenger" depart="69.23" departLane="best" from="949044326#4" to="392180566#1"/>
    <trip id="veh44" type="veh_passenger" depart="70.84" departLane="best" from="889589488#0" to="553614798#0"/>
    <trip id="veh45" type="veh_passenger" depart="72.45" departLane="best" from="-119010369#1" to="480539969#1"/>
    <trip id="veh46" type="veh_passenger" depart="74.06" departLane="best" from="470605351#3" to="404178421#0"/>
    <trip id="veh47" type="veh_passenger" depart="75.67" departLane="best" from="-542622632#3" to="469158219#0"/>
    <trip id="veh49" type="veh_passenger" depart="78.89" departLane="best" from="150999762" to="867910979#1"/>
    <trip id="veh50" type="veh_passenger" depart="80.50" departLane="best" from="553614804#0" to="-542622631#6"/>
    <trip id="veh51" type="veh_passenger" depart="82.11" departLane="best" from="392180547#8" to="-469158216"/>
    <trip id="veh52" type="veh_passenger" depart="83.72" departLane="best" from="745539605#2" to="553614801#2"/>
    <trip id="veh53" type="veh_passenger" depart="85.33" departLane="best" from="-542622654#0" to="469158217"/>
    <trip id="veh54" type="veh_passenger" depart="86.94" departLane="best" from="542622654#1" to="404178421#3"/>
    <trip id="veh55" type="veh_passenger" depart="88.55" departLane="best" from="542686778#1-AddedOnRampEdge" to="392180567#0"/>
    <trip id="veh56" type="veh_passenger" depart="90.16" departLane="best" from="-1030345537" to="-553614801#4"/>
    <trip id="veh57" type="veh_passenger" depart="91.77" departLane="best" from="-330084819#0" to="746033033"/>
    <trip id="veh58" type="veh_passenger" depart="93.38" departLane="best" from="553614805#2" to="553591193#2"/>
    <trip id="veh59" type="veh_passenger" depart="94.99" departLane="best" from="-553592344#2" to="-392180556#1"/>
    <trip id="veh60" type="veh_passenger" depart="96.60" departLane="best" from="553614805#1" to="867910973#5"/>
    <trip id="veh61" type="veh_passenger" depart="98.21" departLane="best" from="-435784043#4" to="392047450#2"/>
    <trip id="veh62" type="veh_passenger" depart="99.82" departLane="best" from="-392180564#1" to="542622651#1"/>
    <trip id="veh63" type="veh_passenger" depart="101.43" departLane="best" departSpeed="max" from="542686773#0" to="-469074076#6"/>
    <trip id="veh64" type="veh_passenger" depart="103.04" departLane="best" from="37398225#9" to="468783406#2"/>
    <trip id="veh65" type="veh_passenger" depart="104.65" departLane="best" from="-542622631#9" to="553614801#4"/>
    <trip id="veh66" type="veh_passenger" depart="106.26" departLane="best" from="-948982084#0" to="-469934362#0"/>
    <trip id="veh67" type="veh_passenger" depart="107.87" departLane="best" from="435784043#3" to="542622631#7"/>
    <trip id="veh68" type="veh_passenger" depart="109.48" departLane="best" from="949044326#4" to="469158222"/>
    <trip id="veh70" type="veh_passenger" depart="112.70" departLane="best" from="-469074067#0" to="-470605354"/>
    <trip id="veh71" type="veh_passenger" depart="114.31" departLane="best" from="-563903803#0" to="469074076#7"/>
    <trip id="veh72" type="veh_passenger" depart="115.92" departLane="best" from="-471719156#1" to="-470605351#0"/>
    <trip id="veh73" type="veh_passenger" depart="117.53" departLane="best" from="-392180566#2" to="469158210#6"/>
    <trip id="veh74" type="veh_passenger" depart="119.14" departLane="best" from="-471658994" to="745539600#1"/>
    <trip id="veh75" type="veh_passenger" depart="120.75" departLane="best" from="553614797#3" to="-392180566#1"/>
    <trip id="veh76" type="veh_passenger" depart="122.36" departLane="best" from="-476021739#3" to="469929212#3"/>
    <trip id="veh77" type="veh_passenger" depart="123.97" departLane="best" from="-469934362#4" to="-469074078"/>
    <trip id="veh78" type="veh_passenger" depart="125.58" departLane="best" from="749091336" to="468783444#0"/>
    <trip id="veh79" type="veh_passenger" depart="127.19" departLane="best" from="37398225#6" to="542686780"/>
    <trip id="veh80" type="veh_passenger" depart="128.80" departLane="best" from="553591156#1" to="-469158222"/>
    <trip id="veh81" type="veh_passenger" depart="130.41" departLane="best" from="-468783411#4" to="-949044340"/>
    <trip id="veh82" type="veh_passenger" depart="132.02" departLane="best" from="-948982084#1" to="208019152"/>
    <trip id="veh83" type="veh_passenger" depart="133.63" departLane="best" from="542622632#3" to="469929466#3"/>
    <trip id="veh84" type="veh_passenger" depart="135.24" departLane="best" from="948982088" to="-468783413#1"/>
    <trip id="veh85" type="veh_passenger" depart="136.85" departLane="best" from="-889589486#4" to="-563903803#0"/>
    <trip id="veh86" type="veh_passenger" depart="138.46" departLane="best" from="553614798#0" to="-477948309#3"/>
    <trip id="veh87" type="veh_passenger" depart="140.07" departLane="best" from="-469158224#0" to="119029090"/>
    <trip id="veh88" type="veh_passenger" depart="141.68" departLane="best" from="-480539965#0" to="746033028"/>
    <trip id="veh89" type="veh_passenger" depart="143.29" departLane="best" from="119010369#2" to="553614798#0"/>
    <trip id="veh90" type="veh_passenger" depart="144.90" departLane="best" from="468783411#3" to="-392180550#2"/>
    <trip id="veh91" type="veh_passenger" depart="146.51" departLane="best" from="949044361#1" to="553591196#2"/>
    <trip id="veh92" type="veh_passenger" depart="148.12" departLane="best" from="889589487#5" to="746033032#2"/>
    <trip id="veh93" type="veh_passenger" depart="149.73" departLane="best" from="553592343#3" to="-469158208#2"/>
    <trip id="veh94" type="veh_passenger" depart="151.34" departLane="best" from="392180545#1" to="-469934362#2"/>
    <trip id="veh95" type="veh_passenger" depart="152.95" departLane="best" from="-889589486#1" to="-392180558#0"/>
    <trip id="veh96" type="veh_passenger" depart="154.56" departLane="best" from="-747964668" to="948982088"/>
    <trip id="veh97" type="veh_passenger" depart="156.17" departLane="best" from="-542622632#0" to="542686779"/>
    <trip id="veh99" type="veh_passenger" depart="159.39" departLane="best" from="887744048#0" to="949044326#4"/>
    <trip id="veh100" type="veh_passenger" depart="161.00" departLane="best" from="468783424#1" to="480539968#0"/>
    <trip id="veh101" type="veh_passenger" depart="162.61" departLane="best" from="-469124635#6" to="-542622651#5"/>
    <trip id="veh102" type="veh_passenger" depart="164.22" departLane="best" from="889589487#4" to="469004852"/>
    <trip id="veh103" type="veh_passenger" depart="165.83" departLane="best" from="468783404#1" to="542622641#0"/>
    <trip id="veh104" type="veh_passenger" depart="167.44" departLane="best" from="-392180556#0" to="469074076#0"/>
    <trip id="veh105" type="veh_passenger" depart="169.05" departLane="best" from="392180550#0" to="553592343#6"/>
    <trip id="veh106" type="veh_passenger" depart="170.66" departLane="best" from="-469124635#9" to="889589486#3"/>
    <trip id="veh107" type="veh_passenger" depart="172.27" departLane="best" from="-404178421#2" to="-469158220#4"/>
    <trip id="veh108" type="veh_passenger" depart="173.88" departLane="best" from="469074093#2" to="469929500"/>
    <trip id="veh109" type="veh_passenger" depart="175.49" departLane="best" from="-476021735#2" to="-469004845#2"/>
    <trip id="veh110" type="veh_passenger" depart="177.10" departLane="best" from="553615628#5" to="-476243098#2"/>
    <trip id="veh111" type="veh_passenger" depart="178.71" departLane="best" from="469074093#1" to="469158201#2"/>
    <trip id="veh112" type="veh_passenger" depart="180.32" departLane="best" from="-889589492#1" to="469074076#0"/>
    <trip id="veh113" type="veh_passenger" depart="181.94" departLane="best" from="392180564#0" to="747964669"/>
    <trip id="veh114" type="veh_passenger" depart="183.55" departLane="best" from="-469929212#3" to="480539966#1"/>
    <trip id="veh115" type="veh_passenger" depart="185.16" departLane="best" from="-476021739#4" to="-867910977"/>
    <trip id="veh116" type="veh_passenger" depart="186.77" departLane="best" from="469934362#0" to="-542622654#0"/>
    <trip id="veh117" type="veh_passenger" depart="188.38" departLane="best" from="-553614800#0" to="542622644#0"/>
    <trip id="veh118" type="veh_passenger" depart="189.99" departLane="best" from="-392180567#1" to="150999761#1-AddedOnRampEdge"/>
    <trip id="veh119" type="veh_passenger" depart="191.60" departLane="best" from="949044355#1" to="949044326#4"/>
    <trip id="veh120" type="veh_passenger" depart="193.21" departLane="best" from="-392180568#0" to="-469934362#2"/>
    <trip id="veh121" type="veh_passenger" depart="194.82" departLane="best" from="-542622632#0" to="747964667"/>
    <trip id="veh122" type="veh_passenger" depart="196.43" departLane="best" from="-746033032#0" to="-469124635#9"/>
    <trip id="veh123" type="veh_passenger" depart="198.04" departLane="best" from="553591196#0" to="476021739#5"/>
    <trip id="veh124" type="veh_passenger" depart="199.65" departLane="best" from="469124635#7" to="948982088-AddedOnRampEdge"/>
    <trip id="veh126" type="veh_passenger" depart="202.87" departLane="best" from="553591178#3" to="-542622653#1"/>
    <trip id="veh127" type="veh_passenger" depart="204.48" departLane="best" from="469929212#1" to="749707934#2"/>
    <trip id="veh128" type="veh_passenger" depart="206.09" departLane="best" from="-469074087#1" to="-468783444#2"/>
    <trip id="veh129" type="veh_passenger" depart="207.70" departLane="best" from="-468783435#1" to="468783411#1"/>
    <trip id="veh130" type="veh_passenger" depart="209.31" departLane="best" from="-542622637" to="469074099#0"/>
    <trip id="veh131" type="veh_passenger" depart="210.92" departLane="best" from="480539971#1" to="-469929212#1"/>
    <trip id="veh132" type="veh_passenger" depart="212.53" departLane="best" from="469158216" to="-542622631#7"/>
    <trip id="veh133" type="veh_passenger" depart="214.14" departLane="best" from="392180545#3" to="745539600#1"/>
    <trip id="veh134" type="veh_passenger" depart="215.75" departLane="best" from="553592343#1" to="-468783406#3"/>
    <trip id="veh135" type="veh_passenger" depart="217.36" departLane="best" from="-948982084#1" to="-542622639#2"/>
    <trip id="veh137" type="veh_passenger" depart="220.58" departLane="best" from="469158219#1" to="-542622631#4"/>
    <trip id="veh138" type="veh_passenger" depart="222.19" departLane="best" from="542622640#2" to="468783408#1"/>
    <trip id="veh139" type="veh_passenger" depart="223.80" departLane="best" from="-949044313#2" to="-119010369#0"/>
    <trip id="veh140" type="veh_passenger" depart="225.41" departLane="best" from="-392180569" to="553614809#0"/>
    <trip id="veh141" type="veh_passenger" depart="227.02" departLane="best" from="745539598#1" to="468783398"/>
    <trip id="veh142" type="veh_passenger" depart="228.63" departLane="best" from="553591196#1" to="469074074"/>
    <trip id="veh143" type="veh_passenger" depart="230.24" departLane="best" from="-469124633#0" to="-469074076#5"/>
    <trip id="veh144" type="veh_passenger" depart="231.85" departLane="best" from="-553592344#3" to="606026174#1"/>
    <trip id="veh145" type="veh_passenger" depart="233.46" departLane="best" departSpeed="max" from="553591151#0" to="553614797#5"/>
    <trip id="veh146" type="veh_passenger" depart="235.07" departLane="best" from="606026174#1" to="-469929467#0"/>
    <trip id="veh147" type="veh_passenger" depart="236.68" departLane="best" from="542686778#2" to="553614809#1"/>
    <trip id="veh148" type="veh_passenger" depart="238.29" departLane="best" from="-469124635#5" to="747964661"/>
    <trip id="veh149" type="veh_passenger" depart="239.90" departLane="best" from="553614798#4" to="889589490#1"/>
    <trip id="veh150" type="veh_passenger" depart="241.51" departLane="best" from="553591165#0" to="553614806#1"/>
    <trip id="veh151" type="veh_passenger" depart="243.12" departLane="best" from="-37398225#11" to="542622634"/>
    <trip id="veh152" type="veh_passenger" depart="244.73" departLane="best" from="-553615628#1" to="747964663"/>
    <trip id="veh153" type="veh_passenger" depart="246.34" departLane="best" departSpeed="max" from="553591151#0" to="553614798#4"/>
    <trip id="veh154" type="veh_passenger" depart="247.95" departLane="best" from="553591165#0" to="-542622632#1"/>
    <trip id="veh155" type="veh_passenger" depart="249.56" departLane="best" from="550909499#0" to="-468783435#2"/>
    <trip id="veh156" type="veh_passenger" depart="251.17" departLane="best" from="553614801#3" to="553614797#2"/>
    <trip id="veh157" type="veh_passenger" depart="252.78" departLane="best" from="-470605352#0" to="553591188#0"/>
    <trip id="veh158" type="veh_passenger" depart="254.39" departLane="best" from="208019153" to="-553591190#3"/>
    <trip id="veh159" type="veh_passenger" depart="256.00" departLane="best" departSpeed="max" from="553591151#0" to="-471293180#3"/>
    <trip id="veh160" type="veh_passenger" depart="257.61" departLane="best" from="-553614805#1" to="553614798#5"/>
    <trip id="veh161" type="veh_passenger" depart="259.22" departLane="best" from="889589487#2" to="-542622640#2"/>
    <trip id="veh162" type="veh_passenger" depart="260.83" departLane="best" from="469158220#5" to="-887410044"/>
    <trip id="veh163" type="veh_passenger" depart="262.44" departLane="best" from="889589493#1" to="401441827"/>
    <trip id="veh164" type="veh_passenger" depart="264.05" departLane="best" from="749707934#2" to="-468783444#2"/>
    <trip id="veh165" type="veh_passenger" depart="265.66" departLane="best" from="889589487#7" to="-469158216"/>
    <trip id="veh166" type="veh_passenger" depart="267.27" departLane="best" from="889589486#6" to="-542622631#9"/>
    <trip id="veh168" type="veh_passenger" depart="270.49" departLane="best" from="542622632#1" to="-553614798#1"/>
    <trip id="veh169" type="veh_passenger" depart="272.10" departLane="best" from="469124634#1" to="392180553#0"/>
    <trip id="veh170" type="veh_passenger" depart="273.71" departLane="best" from="-867910966" to="469004845#0"/>
    <trip id="veh171" type="veh_passenger" depart="275.32" departLane="best" from="-480539969#0" to="476243098#0"/>
    <trip id="veh173" type="veh_passenger" depart="278.54" departLane="best" from="435784043#0" to="480539969#0"/>
    <trip id="veh174" type="veh_passenger" depart="280.15" departLane="best" from="542622640#3" to="469929216#2"/>
    <trip id="veh175" type="veh_passenger" depart="281.76" departLane="best" from="-746033024" to="-392180566#0"/>
    <trip id="veh176" type="veh_passenger" depart="283.37" departLane="best" from="469929212#3" to="-553614809#0"/>
    <trip id="veh177" type="veh_passenger" depart="284.98" departLane="best" from="-553614798#3" to="553592343#3"/>
    <trip id="veh179" type="veh_passenger" depart="288.20" departLane="best" from="-553614797#1" to="-889589487#0"/>
    <trip id="veh180" type="veh_passenger" depart="289.81" departLane="best" from="-889589486#3" to="-542622651#3"/>
    <trip id="veh181" type="veh_passenger" depart="291.42" departLane="best" from="-469074076#5" to="-889589492#0"/>
    <trip id="veh182" type="veh_passenger" depart="293.03" departLane="best" from="749707934#4" to="469934362#2"/>
    <trip id="veh183" type="veh_passenger" depart="294.64" departLane="best" from="612344427#4" to="469124635#6"/>
    <trip id="veh184" type="veh_passenger" depart="296.25" departLane="best" from="-553591156#0" to="468783404#3"/>
    <trip id="veh185" type="veh_passenger" depart="297.86" departLane="best" from="-1030345537" to="-542622646#0"/>
    <trip id="veh186" type="veh_passenger" depart="299.47" departLane="best" from="-949044355#0" to="469074067#0"/>
    <trip id="veh187" type="veh_passenger" depart="301.08" departLane="best" from="469158243#1" to="173556972"/>
    <trip id="veh188" type="veh_passenger" depart="302.69" departLane="best" from="119010369#2" to="-469934362#2"/>
    <trip id="veh189" type="veh_passenger" depart="304.30" departLane="best" from="37398225#6" to="612344427#3"/>
    <trip id="veh190" type="veh_passenger" depart="305.91" departLane="best" departSpeed="max" from="553591151#0" to="-469158210#3"/>
    <trip id="veh191" type="veh_passenger" depart="307.52" departLane="best" from="-435784043#3" to="392180556#0"/>
    <trip id="veh192" type="veh_passenger" depart="309.13" departLane="best" from="469158215#2" to="-553615628#4"/>
    <trip id="veh193" type="veh_passenger" depart="310.74" departLane="best" from="553591178#4" to="542622643"/>
    <trip id="veh194" type="veh_passenger" depart="312.35" departLane="best" from="469934362#2" to="-470605354"/>
    <trip id="veh195" type="veh_passenger" depart="313.96" departLane="best" from="-476243098#1" to="37398225#1"/>
    <trip id="veh196" type="veh_passenger" depart="315.57" departLane="best" from="553592343#4" to="-392180567#1"/>
    <trip id="veh197" type="veh_passenger" depart="317.18" departLane="best" from="-889589489#0" to="469158210#4"/>
    <trip id="veh198" type="veh_passenger" depart="318.79" departLane="best" from="-469158228" to="471719156#4"/>
    <trip id="veh199" type="veh_passenger" depart="320.40" departLane="best" departSpeed="max" from="392180547#0" to="-476021743"/>
    <trip id="veh202" type="veh_passenger" depart="325.23" departLane="best" from="-468783435#0" to="-948982084#1"/>
    <trip id="veh203" type="veh_passenger" depart="326.84" departLane="best" from="-469158215#0" to="887744048#1"/>
    <trip id="veh204" type="veh_passenger" depart="328.45" departLane="best" from="-480539965#0" to="553592343#3"/>
    <trip id="veh205" type="veh_passenger" depart="330.06" departLane="best" from="150999764" to="553591165#2"/>
    <trip id="veh206" type="veh_passenger" depart="331.67" departLane="best" from="469929466#0" to="948982091#0"/>
    <trip id="veh207" type="veh_passenger" depart="333.28" departLane="best" from="469074093#4" to="867910975#1"/>
    <trip id="veh208" type="veh_passenger" depart="334.89" departLane="best" from="563903802#1" to="469124635#2"/>
    <trip id="veh210" type="veh_passenger" depart="338.11" departLane="best" from="553591190#3" to="468783404#3"/>
    <trip id="veh211" type="veh_passenger" depart="339.72" departLane="best" from="606024806#1" to="542622639#1"/>
    <trip id="veh212" type="veh_passenger" depart="341.33" departLane="best" from="37398225#9" to="-542622631#0"/>
    <trip id="veh213" type="veh_passenger" depart="342.94" departLane="best" from="-477948309#2" to="469158215#2"/>
    <trip id="veh214" type="veh_passenger" depart="344.55" departLane="best" departSpeed="max" from="542686773#0" to="392180561#1"/>
    <trip id="veh215" type="veh_passenger" depart="346.16" departLane="best" from="469158210#6" to="-542622638#1"/>
    <trip id="veh216" type="veh_passenger" depart="347.77" departLane="best" from="-401441826#1" to="-542622645#0"/>
    <trip id="veh217" type="veh_passenger" depart="349.38" departLane="best" from="-542622636#3" to="-553614800#4"/>
    <trip id="veh218" type="veh_passenger" depart="350.99" departLane="best" from="435784043#4" to="-469074093#0"/>
    <trip id="veh219" type="veh_passenger" depart="352.60" departLane="best" from="477948309#0" to="-392180561#4"/>
    <trip id="veh220" type="veh_passenger" depart="354.21" departLane="best" from="-889589487#1" to="435784043#2"/>
    <trip id="veh221" type="veh_passenger" depart="355.82" departLane="best" from="-889589490#0" to="-469929216#2"/>
    <trip id="veh222" type="veh_passenger" depart="357.43" departLane="best" from="-889589493#0" to="745539600#0"/>
    <trip id="veh223" type="veh_passenger" depart="359.04" departLane="best" from="469074076#7" to="471719156#2"/>
    <trip id="veh224" type="veh_passenger" depart="360.65" departLane="best" from="553592344#2" to="542622653#1"/>
    <trip id="veh226" type="veh_passenger" depart="363.87" departLane="best" from="-745539601#0" to="542622645#0"/>
    <trip id="veh227" type="veh_passenger" depart="365.48" departLane="best" from="553592343#6" to="867910979#1"/>
    <trip id="veh228" type="veh_passenger" depart="367.09" departLane="best" from="-889589492#0" to="542622640#5"/>
    <trip id="veh229" type="veh_passenger" depart="368.70" departLane="best" from="468783406#2" to="469074096#4"/>
    <trip id="veh230" type="veh_passenger" depart="370.31" departLane="best" from="-470605351#1" to="-470298782"/>
    <trip id="veh232" type="veh_passenger" depart="373.53" departLane="best" from="-563903802#1" to="470298776#0"/>
    <trip id="veh233" type="veh_passenger" depart="375.14" departLane="best" from="37398225#0" to="-469074076#5"/>
    <trip id="veh234" type="veh_passenger" depart="376.75" departLane="best" from="469158210#0" to="-37398225#4"/>
    <trip id="veh235" type="veh_passenger" depart="378.36" departLane="best" from="-867910976" to="468783435#0"/>
    <trip id="veh237" type="veh_passenger" depart="381.58" departLane="best" from="-392180550#2" to="-747964666"/>
    <trip id="veh238" type="veh_passenger" depart="383.19" departLane="best" from="-469934362#1" to="-553614802#2"/>
    <trip id="veh239" type="veh_passenger" depart="384.80" departLane="best" from="542622653#1" to="-747964666"/>
    <trip id="veh240" type="veh_passenger" depart="386.41" departLane="best" from="542622646#3" to="553591193#2"/>
    <trip id="veh241" type="veh_passenger" depart="388.02" departLane="best" from="-330084818" to="404178421#3"/>
    <trip id="veh242" type="veh_passenger" depart="389.63" departLane="best" from="949044361#1" to="-745539598#1"/>
    <trip id="veh243" type="veh_passenger" depart="391.24" departLane="best" from="469158227#3" to="542686778#2-AddedOnRampEdge"/>
    <trip id="veh244" type="veh_passenger" depart="392.85" departLane="best" from="469158231" to="542622646#0"/>
    <trip id="veh245" type="veh_passenger" depart="394.46" departLane="best" from="-330084819#2" to="-469124635#1"/>
    <trip id="veh246" type="veh_passenger" depart="396.07" departLane="best" from="-469074076#2" to="469929216#0"/>
    <trip id="veh247" type="veh_passenger" depart="397.68" departLane="best" from="468783439#1" to="-470298779"/>
    <trip id="veh248" type="veh_passenger" depart="399.29" departLane="best" from="-469158210#10" to="469074099#4"/>
    <trip id="veh249" type="veh_passenger" depart="400.90" departLane="best" from="542622644#1" to="-468783444#1"/>
    <trip id="veh250" type="veh_passenger" depart="402.51" departLane="best" from="553591178#4" to="889589486#9"/>
    <trip id="veh251" type="veh_passenger" depart="404.12" departLane="best" from="-468783435#2" to="-37398225#2"/>
    <trip id="veh252" type="veh_passenger" depart="405.73" departLane="best" from="-553614798#0" to="469934362#2"/>
    <trip id="veh253" type="veh_passenger" depart="407.34" departLane="best" from="887744048#1" to="-867910978"/>
    <trip id="veh254" type="veh_passenger" depart="408.95" departLane="best" from="480539969#0" to="-392180570"/>
    <trip id="veh255" type="veh_passenger" depart="410.56" departLane="best" from="471719156#2" to="469158210#1"/>
    <trip id="veh257" type="veh_passenger" depart="413.78" departLane="best" from="553592343#4" to="469074095"/>
    <trip id="veh258" type="veh_passenger" depart="415.39" departLane="best" from="-469074067#0" to="948982084#3"/>
    <trip id="veh259" type="veh_passenger" depart="417.00" departLane="best" from="542686778#2-AddedOnRampEdge" to="-612344427#2"/>
    <trip id="veh260" type="veh_passenger" depart="418.61" departLane="best" from="-949044324" to="-746033032#0"/>
    <trip id="veh261" type="veh_passenger" depart="420.22" departLane="best" from="392180551" to="-606024805"/>
    <trip id="veh262" type="veh_passenger" depart="421.83" departLane="best" from="553592343#4" to="553591188#1"/>
    <trip id="veh263" type="veh_passenger" depart="423.44" departLane="best" from="-468783431#1" to="889589486#3"/>