<?xml version="1.0" encoding="UTF-8"?>

<!-- generated on 2022-05-28 11:22:22 by Eclipse SUMO jtrrouter Version 1.13.0
<configuration xmlns:xsi="http://www.w3.org/2001/XMLSchema-instance" xsi:noNamespaceSchemaLocation="http://sumo.dlr.de/xsd/jtrrouterConfiguration.xsd">

    <input>
        <net-file value="maps/osm.net.xml"/>
        <route-files value="maps/osm.passenger.trips.xml"/>
    </input>

    <output>
        <output-file value="maps/my.rou.xml"/>
    </output>

    <processing>
        <no-internal-links value="true"/>
        <accept-all-destinations value="true"/>
    </processing>

    <time>
        <end value="10000"/>
    </time>

</configuration>
-->

<routes xmlns:xsi="http://www.w3.org/2001/XMLSchema-instance" xsi:noNamespaceSchemaLocation="http://sumo.dlr.de/xsd/routes_file.xsd">
    <vType id="veh_passenger" vClass="passenger"/>
    <vehicle id="veh0" type="veh_passenger" depart="0.00" departLane="best">
        <route edges="469074096#0 -469074096#0 -469074070 867910973#5 867910973#6 867910973#7 -469074067#1 -469580585 37398225#4 469158219#0 469158220#1 469158220#2 -471658993 -469158221#2 -469158222 -469158221#0 -469158220#1 -469158219#0 37398225#5 37398225#6 469158218#0 469158226 -469158230#2 -469158230#1 469158233#0 -469158233#0 -469158230#0 469158230#0 469158230#1 469158240 -37398225#9 -37398225#8 -37398225#7 -471293180#3 -471293181 471293181 -471293180#2 -469158229 -747964669 -606024806#0 469074076#4 469074076#5 -469074076#5 -746033032#5 -469074075 469074076#6 469074076#7 -867910973#5 469074070 469074074 746033030 -746033030 -469074077#2 -469074077#1 469074077#1 469074093#0 -469074078 -469074077#0 746033032#5 -469074076#4 606024806#0 606024806#1 606024806#2 37398225#9 37398225#10 37398225#11 -887410044#3 887410044#3 -37398225#11 -469158231 469158231 -37398225#10 -469158240 469158230#2 -469158226 469158218#1 119010369#3 469158224#0 469158224#1 -469158224#1 -469158232#3 -469158232#2 469158241 -469158241 -469158238#2 -469158238#1 747964670 469158232#3 -469158224#0 -119010369#3 -469158218#1 469158220#0 -469158220#0 -469158218#0 -37398225#6 -37398225#5 -37398225#4 469580585 -469074067#0 471293180#2 471293180#3 37398225#7 37398225#8 -606024806#2 -606024805 606024805 -606024806#1 747964669 469158229 -471293180#1 -746033033 -867910973#6 -469074076#7 -746033031 -469158228 469158227#1 469158227#3 -469158227#3 -469158227#1 -469158227#0 469158227#0 469158228 471293180#0 471293180#1 469074067#0 469074067#1 -867910973#7 746033033 -471293180#0 469074071 -469074076#6 469074075 -746033032#4 -746033032#3 -746033032#2 -746033032#1 747964668 469074087#1 746033032#4 469074077#0 -469074081#0 469074081#0 469074078 469074093#1 469074093#2 -469074093#2 -469074093#1 -469074093#0 469074077#2 -469074074"/>
    </vehicle>
    <vehicle id="veh1" type="veh_passenger" depart="1.08" departLane="best">
        <route edges="-476021740#2 -476021740#1 -476021740#0 476021739#5 -542622635 476021740#2 553591196#6 553591178#4 -477948309#3 -469934362#4 469934362#4 -477948309#2 -477948309#1 477948309#1 477948309#2 477948309#3 553591178#5 553591178#6 553591196#4 553591196#5"/>
    </vehicle>
    <vehicle id="veh3" type="veh_passenger" depart="3.24" departLane="best">
        <route edges="563903803#1 469929467#0 -469929467#0 -563903803#1 563903802#3 -749707934#1 -749707934#0 435784043#0 435784043#2 435784043#3 -468783426 468783426 -435784043#3 801000833 435784043#5 -468995649 -435784043#4 435784043#4 -801000833 -435784043#2 -435784043#0 553591173 749707934#1 749707934#2 -749707934#2 -563903802#3 -563903803#0 749707934#3 -749707934#3 563903803#0 -563903802#2 749707934#4 -563903802#0 -469929466#3 -469929466#1 -469929466#0 -948982084#1 -948982082 -468783439#5 -469004845#3 -469004845#2 -469004845#1 -542622644#0 -468783439#0 553592344#3 553614798#0 553614798#1 553614798#2 -542622632#5 -468783411#4 -468783411#3 -468783411#2 -468783411#1 -468783411#0 -468783408#0 553614798#5 37398225#0 -469158217 469158217 37398225#1 469158214 -469158214 37398225#2 -867910973#8 -469074067#1 -469074067#0 -469158229 -747964669 606024806#1 -606024806#1 747964669 -469158227#1 -469158227#0 469074076#5 469074076#6 469074076#7 867910973#6 746033033 -471293180#0 471293180#0 471293180#1 471293180#2 471293180#3 37398225#7 -469158224#2 -469158224#1 -469158224#0 -119010369#3 -469158218#1 469158226 -469158226 469158220#0 469158220#1 469158221#0 -469158221#0 -469158220#1 -469158219#0 -37398225#4 469580585 -469580585 37398225#4 469158219#0 469158219#1 -119010369#1 -119010369#0 119010369#0 119010369#1 -469158219#1 -469158220#0 469158218#1 -119010369#2 119010369#2 119010369#3 469158224#0 -469158232#3 -747964670 -469158238#0 747964671 -469158235 469158235 -469158233#1 469158233#1 469158233#3 -469158233#3 -747964671 469158238#0 747964670 -469158232#2 469158232#2 469158232#3 469158224#1 469158224#2 37398225#8 -37398225#8 -469158227#3 469158227#3 -37398225#7 -37398225#6 37398225#6 469158218#0 -469158218#0 -471293180#3 -471293180#2 469074067#0 469074067#1 -867910973#7 867910973#7 867910973#8 37398225#3 -37398225#3 469158215#0 -469158220#5 -469158220#4 -469158220#3 -469158220#2 469158220#2 469158220#3 471658994 -471658994 469158220#4 469158220#5 -469158215#0 -37398225#2 -37398225#1 -37398225#0 119029090 -469124635#9 -469124635#8 -469929212#3 745539608 469934362#0 469929212#1 469929212#2 -469929212#2 469929216#1 469929216#2 -469929216#2 -469929216#1 -469929216#0 -745539608 476021743 -476021743 469929212#3 -476021742 -468783414 -949044355#0 949044355#0 949044355#1 476021742 -469124635#7 469124635#7 469124635#8 469124635#9 949044361#1 -553614798#5 -553614798#4 -553614798#3 542622631#0 -468783398 468783398 -542622631#0 -553614798#2 -553614798#1 -553614798#0 -553614801#5 -469158210#5 -745539601#2 -745539601#1 -745539601#0 -468783404#2 468783404#2 468783404#3 745539601#1 745539601#2 469158210#5 553614801#5 -553592344#3 468783439#0 468783439#1 468783439#2 468783439#3 -469158211 -468783444#2 -468783444#1 -468783444#0 553614801#2 -553614801#2 468783444#0 468783444#1 468783446 -468783446 468783444#2 -468783435#1 -468783435#0 -542622631#7 -542622631#6 -542622631#5 542622631#5 542622631#6 542622631#7 542622631#8 542622631#9 -468783439#2 -468783439#1 542622644#0 469004845#1 469004845#2 469004845#3 -553614802#2 553614802#2 468783439#5 469004852 -948982084#0 553614805#2 948982084#1 469929466#0 469929466#1 469929466#3 563903802#0 563903802#1 563903802#2"/>
    </vehicle>
    <vehicle id="veh4" type="veh_passenger" depart="4.32" departLane="best">
        <route edges="-867910973#1 867910973#1 -469074099#4 469074098 -469074098 469074099#4 867910973#2 867910973#3 867910966 -867910966 -867910973#3 -746033023 -469074095 469074095 746033023 -867910973#2"/>
    </vehicle>
    <vehicle id="veh5" type="veh_passenger" depart="5.39" departLane="best">
        <route edges="-469158235 -887410044#0 -119010369#7 418087791 942801979#0 -942801979#0 -418087791 -469158233#3 -469158233#1 -469158232#0 887410044#2 469158230#0 469158231 37398225#11 -887410044#3 -887410044#2 -887410044#1 469158235 -747964671 469158238#0 747964670 -747964670 -469158238#0 747964671 469158233#3 -119010369#6 119010369#6 119010369#7 118992945 119001261#0 -119001261#0 -118992945 887410044#0 887410044#1 469158232#0 -469158233#0 -469158230#0 887410044#3 330084835 887410042 887410043#0 -867910972#5 867910972#5 887410043#1 -887410043#1 -887410043#0 330084824#0 330084824#1 330084824#2 -867910971#1 -867910969 867910969 867910971#1 -330084824#2 -330084824#1 -867910970#1 867910970#1 -330084824#0 392180547#0 -392180561#5 -392180561#4 -392180561#3 867910977 747964664 -392180555#1 -392180555#0 392180545#4 392180545#5 392180545#6 392180545#7 -392180249#2 -747964661 392180251#0 392180552 392180551 -392180551 -747964662 392180553#0 -392180553#0 -392180251#0 747964661 392180249#2 392180545#9 392180545#10 -471719156#4 471720026 -392180544 392180544 -471720026 887742278 -392180545#9 -392180545#7 -392180545#6 -392180545#5 -867910975#1 -867910975#0 867910975#0 867910975#1 -392180545#4 392180555#0 392180555#1 -747964664 -867910977 392180564#0 -392180566#1 612344427#4 -330084824#3 330084824#3 612344427#5 867910972#1 867910971#0 -867910971#0 -867910967 867910968#1 -867910972#3 -867910972#1 -867910972#0 392180565#0 720844404#0 720844404#1 471721994 -471721994 471721996 -471721996 -720844404#1 -720844404#0 -392180565#0 -330084824#5 -720844405 -392180564#2 -392180565#1 392180565#1 392180564#2 720844405 -330084824#4 -612344427#4 -392180566#0 392180566#0 392180566#1 392180564#1 -392180564#1 392180566#2 -392180566#2 -392180564#0 -392180561#1 392180561#1 392180561#3 392180561#4 -612344427#2 -612344427#1 -612344427#0 392180559#2 -392180559#2 -392180559#1 606026174#1 392180550#4 -392180550#4 -392180550#3 -392180550#2 -392180555#2 392180555#2 392180550#2 392180550#3 -606026174#1 -606026174#0 392180563#1 -392180563#1 -392180563#0 -867910979#0 867910979#0 867910979#1 392180559#0 392180559#1 612344427#0 612344427#1 612344427#2 392180561#5 392180547#1 -392180563#3 -392180563#2 392180563#2 392180563#3 392180547#2 392180547#3 392180547#4 392180547#5 469158244 -469158244 392180547#6 -392180548#1 392180548#1 392180547#7"/>
    </vehicle>
    <vehicle id="veh6" type="veh_passenger" depart="6.47" departLane="best">
        <route edges="-119010369#2 -119010369#1 -469158215#2 469158216 -469158216 -469158215#1 -469158215#0 -867910973#8 -469074067#1 -469580585 -37398225#3 469158215#0 -469158220#5 469158220#5 469158217 37398225#1 -37398225#1 -37398225#0 119010369#0 119010369#1 -469158219#1 -469158219#0 -37398225#4 37398225#4 469158219#0 469158219#1 119010369#2 -469158218#1 469158226 -469158226 -469158218#0 -471293180#3 471293180#3 -37398225#6 -37398225#5 37398225#5 37398225#6 469158218#0 469158218#1 119010369#3 119010369#5 469158237 747964671 -469158235 887410044#1 469158232#0 -469158233#0 469158230#1 469158240 37398225#10 37398225#11 330084835 887410042 -887410042 -330084835 -37398225#11 -37398225#10 -37398225#9 -37398225#8 -37398225#7 37398225#7 37398225#8 37398225#9 -469158240 469158230#2 469158224#2 -469158227#3 469158227#3 -469158224#2 -469158230#2 -469158230#1 -469158230#0 -887410044#2 887410044#2 887410044#3 -887410044#3 469158230#0 469158231 -469158231 469158233#0 469158239 469158238#2 -469158232#1"/>
    </vehicle>
    <vehicle id="veh7" type="veh_passenger" depart="7.55" departLane="best">
        <route edges="469124635#2 469124635#3 469124635#4 -469124635#4 542622640#0 542622640#1 469124634#0 469124634#1 469124634#2 -949044324 -469124634#1 -469124634#0 542622640#2 -542622640#2 -542622640#1 -542622640#0 -469124635#3 -469124635#2 -949044313#2 -949044313#1 -889589487#3 -889589488#2 889589491#0 -889589491#0 889589488#2 889589488#3 -889589491#1 889589487#2 889589487#3 889589487#4 889589492#1 889589492#2 -889589487#4 949044313#1 949044313#2 -469124635#1 889589486#1 889589486#2 889589487#0 889589489#1 -889589489#1 -889589489#0 889589488#1 -889589488#1 889589489#0 889589487#1 -889589487#1 -889589487#0 889589486#3 889589486#4 949044313#0 -949044313#0 889589486#5 -889589486#5 -889589486#4 -889589486#3 -889589486#2 -889589486#1 -469124635#0 468783439#0 -468783439#0 -553592344#2 -553592344#1 553592343#0 553592343#1 553592343#2 553592343#3 553592343#4 553592343#5 542622639#0 542622639#1 886096276 -886096276 -542622639#1 -542622639#0 949044326#2 -542622644#1 -469004845#0 553592344#2 949044322 469124635#1"/>
    </vehicle>
    <vehicle id="veh8" type="veh_passenger" depart="8.63" departLane="best">
        <route edges="-469158238#1 469158238#1 -469158239 469158232#1 -469158238#2 469158238#2 469158241 -469158241 469158232#2 469158232#3 -469158232#3 -747964670 -469158238#0 -469158237 -119010369#5 469158224#0 -469158224#0 119010369#5 119010369#6 119010369#7 887410044#0 -887410044#0 118992945 119001261#0 119001261#1 867910968#0 867910968#1 867910972#5 746033034 887410044#3 330084835 887410042 330084824#0 -330084824#0 887410043#0 887410043#1 -887410043#1 -867910972#5 -867910972#3 -867910967 867910967 867910972#3 -867910968#1 -867910968#0 -119001261#1 -119001261#0 -118992945 -119010369#7 -119010369#6 469158237 747964671 469158233#3 418087791 942801979#0 942801979#1 -942801979#1 -942801979#0 -418087791 -469158233#3 -469158233#1 -469158233#0 -469158230#0 469158230#0 469158230#1 469158230#2 -469158226 -469158218#0 37398225#7 -469158227#3 -469158227#1 -469158227#0 469158227#0 469158227#1 469158227#3 -37398225#7 -37398225#6 -37398225#5 -37398225#4 -37398225#3 37398225#3 469580585 -469580585 37398225#4 469158219#0 469158220#1 469158221#0 469158221#1 -469158222 -469158221#0 469158220#2 -471658993 -469158221#2 -469158221#1 469158222 469158221#2 469158221#3 469158221#4 469158220#5 -469158215#0 -867910973#8 -469074067#1 -469074067#0 -471293180#1 471293180#1 -469158229 -747964669 -606024806#0 606024803 -469158242 392180547#2 392180547#3 392180547#4 -392180550#4 392180550#4 392180547#5 469158244 746033032#0 -469074086#1 469074091 746033029 -746033029 -469074096#2 -469074099#2 469074099#2 469074096#2 -469074091 469074089#0 469074089#1 -469074089#1 -469074090 469074090 -469074089#0 469074086#1 747964668 469074087#1 746033032#4 469074077#0 -469074081#0 469074081#0 469074077#1 -469074077#1 -469074077#0 746033032#5 469074076#5 -469074076#5 -469074076#4 -469074076#2 -469074076#1 469074076#1 469074076#2 469074076#4 -746033032#5 -746033032#4 -746033032#3 -746033032#2 -746033032#1 -746033032#0 469158243#1 469158243#2 469074087#0 -747964668 746033032#1 746033032#2 746033032#3 -469074087#1 -469074087#0 469158243#3 -606024803 606024806#0 747964669 469158229 471293180#2 471293180#3 -471293180#3 -471293181 471293181 -471293180#2 469074067#0 469074067#1 867910973#8 469158215#0 469158217 -37398225#0 119010369#0 119010369#1 -119010369#1 -119010369#0 469158213 -553614800#5 -553614800#4 -553614800#3 -553614800#2 553614800#2 553614800#3 553614800#4 553614800#5 -469158213 119029090 550909499#0 173556974 173556972 542686778#2 949044361#1 -553614798#5 553614798#5 37398225#0 -469158217 469158215#1 469158216 -469158216 -469158215#1 -469158220#5 -469158220#4 471658994 -469158221#3 471658993 469158220#3 469158220#4 -469158221#4 -471658994 -469158220#3 -469158220#2 -469158220#1 469158219#1 -469158219#1 -469158220#0 469158226 -469158230#2 -469158230#1 469158233#0 -469158232#0 -887410044#1 469158235 -747964671 469158238#0 747964670 -469158232#2 -469158232#1 469158233#1 -469158235 887410044#1 887410044#2 -887410044#2 469158232#0 469158239"/>
    </vehicle>
    <vehicle id="veh10" type="veh_passenger" depart="10.79" departLane="best">
        <route edges="542686773#1 150999762 150999764 542686777 542686778#0 542686778#1 542686778#2 949044361#1 119010369#0 119010369#1 119010369#2 119010369#3 119010369#5 -119010369#5 469158224#0 469158224#1 -469158224#1 -469158224#0 -119010369#3 -469158218#1 469158220#0 469158220#1 -469158220#1 -469158220#0 469158218#1 -119010369#2 -119010369#1 -469158215#2 469158216 -469158216 469158215#2 -119010369#0 469158213 -783529733 468783408#0 468783408#1 542622632#0 542622632#1 -468783413#2 -468783413#1 -468783413#0 468783413#0 468783413#1 468783413#2 542622632#3 542622632#4 -468783411#4 -468783411#3 -468783411#2 -468783411#1 -468783411#0 -468783408#0 783529733 -469158213 119029090 -469124635#9 469124635#9 550909499#0 550909499#1 550909499#2 542686779 542686780 150999763 150999761#0 150999761#1"/>
    </vehicle>
    <vehicle id="veh11" type="veh_passenger" depart="11.87" departLane="best">
        <route edges="-553614797#2 -469124635#5 -469158204 469158204 -469124635#4 542622640#0 542622640#1 -542622640#1 -469158201#4 -469158201#3 -469158205 469158201#4 -542622640#0 -469158208#2 469158208#2 469124635#4 542622641#0 542622641#1 469158201#1 -542622641#0 469124635#5 -553614797#1 553591178#4 553591178#5 553591178#6 553591178#7 553591196#2 -887744049 887744050 -476021739#3 -476021739#2 745539606#0 -745539605#0 542622651#4 -542622651#4 745539605#0 745539606#1 745539606#2 -745539606#2 -745539606#1 745539605#1 745539605#2 -745539605#2 -745539605#1 -745539606#0 476021739#2 476021739#3 476021739#4 476021740#0 476021740#1 476021740#2 -476021740#2 -476021740#1 -476021740#0 -476021739#4 -542622654#2 -542622654#1 542622654#1 -542622651#1 -542622651#0 -542622651#6 -542622651#5 542622653#0 542622653#1 -542622654#0 745539604 542622651#1 542622651#2 542622651#3 -542622651#3 -542622651#2 542622654#2 542622634 -887744048#0 887744048#0 887744048#1 553591196#3 476021739#1 -476021739#1 469929212#0 -469929212#0 553591196#4 553591196#5 553591196#6 553614809#0 -476021739#6 -476021739#5 476021739#5 -542622635 542622635 476021739#6 553614809#1 -553614809#1 542622636#0 542622636#1 542622636#2 542622636#3 -542622636#3 -542622636#2 -542622636#1 542622637 -542622637 -542622636#0 -553614809#0 553614806#0 553614806#1 553614806#2 553592344#1 553592344#2 949044322 469124635#1 469124635#2 469124635#3 -469124635#3 -889589493#2 -889589493#1 -889589487#6 -889589492#1 -889589492#0 -889589487#5 889589492#1 889589492#2 889589487#5 889589487#6 -889589493#0 889589486#6 889589486#7 -889589487#7 889589493#1 889589493#2 -469124635#2 -949044313#2 -949044313#1 949044313#1 949044313#2 -469124635#1 889589486#1 889589490#0 -889589489#1 -889589489#0 889589488#1 889589491#0 889589487#2 889589487#3 889589487#4 -889589487#4 -949044313#0 889589486#5 -889589486#5 -889589486#4 889589486#4 949044313#0 -889589487#3 889589488#3 -889589491#1 -889589487#1 889589487#1 -889589491#0 -889589488#1 889589489#0 889589489#1 889589490#1 889589490#2 -889589488#2 889589488#2 -889589487#2 889589491#1 -889589490#1 -889589490#0 -889589486#1 -469124635#0 468783439#0 -468783439#0 -553592344#2 -553592344#1 -469124633#2 -469124633#1 469124633#1 469124633#2 949044326#4 553591178#1 553591178#2 -542622641#2 542622641#2 553591178#3 553614797#1 553614797#2 553614797#3 -553614797#3"/>
    </vehicle>
    <vehicle id="veh12" type="veh_passenger" depart="12.95" departLane="best">
        <route edges="887410044#1 887410044#2 887410044#3 330084835 887410042 887410043#0 746033034 469158230#0 469158230#1 -469158230#1 -469158230#0 -746033034 -887410043#0 -887410042 -330084835 -887410044#3 -887410044#2 469158232#0 469158232#1 469158241 -469158241 469158232#2 469158232#3 -469158224#0 119010369#5 119010369#6 418087791 942801979#0 -942801979#0 -418087791 -469158233#3 -747964671 -469158237 -119010369#5 469158224#0 -469158232#3 -747964670 747964670 -469158232#2 -469158232#1 469158233#1 -469158233#1 -469158232#0 -887410044#1 469158235 469158233#3 119010369#7 118992945 119001261#0 119001261#1 119001261#2 119001261#3 -330084824#13 -330084824#12 887409093 330084824#10 330084824#12 330084824#13 119010367#0 119010367#1 119010367#2 886931959#0 886931959#1"/>
    </vehicle>
    <vehicle id="veh13" type="veh_passenger" depart="14.02" departLane="best" departSpeed="max">
        <route edges="-392180567#1 -392180570 -392047450#0 -385977220 -470643400 -468783394 -385977216#4 392185782 468783391#1 470643400 -385977216#0 -401441826#2 401441826#2 385977216#0 385977216#1 385977216#2 468783391#0 -468783391#0 -385977216#2 -385977216#1 385977220 392047450#0 392180570 -392180567#0 392047450#3 392180250 -392180250 -392180249#0 -392047450#2 392180568#0 392180568#1 -392180568#1 -392180568#2 392180569 471719156#0 404178425 542622645#0 -542622646#5 -542622646#4 542622646#4 542622646#5 -542622645#0 480539965#0 480539965#1 553614805#0 553614805#1 -476243098#1 -476243098#0 -468783435#3 -468783435#2 -468783444#2 -468783444#1 -468783444#0 -553614801#1 -553614801#0 -553614804#1 542622646#0 542622646#1 542622646#2 542622646#3 480539966#1 480539966#0 -542622646#3 -542622646#2 480539967#0 -480539967#0 -480539967#1 480539967#1 -542622646#1 -542622646#0 -553614804#0 -480539965#1 -480539965#0 -404178425 471719156#1 471719156#2 -471719156#2 -471719156#1 -471719156#0 -392180569 392180568#2 -392180568#0 392047450#2 392180567#0 392180567#1"/>
    </vehicle>
    <vehicle id="veh14" type="veh_passenger" depart="15.10" departLane="best">
        <route edges="553591196#3 469929212#0 469934362#1 469934362#2 469934362#3 469934362#4 -469934362#4 -542622638#1 -542622638#0 -469934362#1 -469929212#0 476021739#1 -476021739#1 553591196#4 553591196#5 553591196#6 553614809#0 -476021739#6 476021739#6 553614809#1 -553614809#1 -553614809#0 553591178#4 -477948309#3 477948309#3 553591178#5 553591178#6 553591178#7 553591196#2 -887744049 -887744048#0 887744048#0 887744048#1"/>
    </vehicle>
    <vehicle id="veh15" type="veh_passenger" depart="16.18" departLane="best">
        <route edges="542686777 542686778#0 542686778#1 542686778#2 553615628#0 553615628#1 553615628#2 -553615628#2 -553615628#1 553615627 -469124635#8 -469929212#3 745539608 469934362#0 469934362#1 469934362#2 469934362#3 469934362#4 477948309#3 553591178#5 553591178#6 553591178#7 553591178#8 330084854"/>
    </vehicle>
    <vehicle id="veh16" type="veh_passenger" depart="17.26" departLane="best">
        <route edges="385977220 -392180569 392180568#2 -392180568#0 392180570 392180567#1 -392180567#1 -392180567#0 392047450#3 392180249#1 -747964661 392180251#0 392180251#2 392180545#9 -392180545#9 -392180249#2 -392180249#1 -392180249#0 -392047450#2 392047450#2 392180567#0 -392180570 -392047450#0 -385977220 -385977216#0 401441826#3 401441826#1 401441828 -385977216#5 385977216#5 -401441828 -401441826#1 -401441826#0 385977216#0 385977216#1 385977216#2 385977216#3 392047448 -385977216#1 -470643400 -468783394 468783394 -468783391#1 468783391#1 470643400"/>
    </vehicle>
    <vehicle id="veh17" type="veh_passenger" depart="18.34" departLane="best">
        <route edges="-745539599 -745539600#1 -745539600#0 -542622643 -469158210#9 469158210#9 469158210#10 -468783439#0 468783439#0 468783439#1 468783439#2 -542622631#9 -542622631#8 -542622631#7 -542622631#6 -542622631#5 553614801#3 553614801#4 553614801#5 -553592344#3 553592344#3 -553614801#5 -553614801#4 -553614801#3 -542622631#4 -542622631#3 542622631#3 542622631#4 542622631#5 542622631#6 542622631#7 -470605351#3 -470605351#2 -470605351#1 469004840 745539600#0 745539600#1 745539599 -745539598#1 -745539598#0 -470605354 470605352#0 470605352#1 470605351#1 470605351#2 470605351#3 468783435#0 -468783446 -468783444#1 -468783444#0 -553614801#1 -553614801#0 -553614804#1 -404178421#5 -404178421#4 404178421#4 -468783429#1 -404178421#3 -404178421#2 -468783431#1 -404178421#0 476243098#1 476243098#2 470298780 468783426 435784043#4 -801000833 -435784043#2 435784043#2 435784043#3 -468783426 -470298780 -476243098#2 -553614805#1 -553614805#0 553614804#0 -553614804#0 -469158202#1 469158202#1 553614805#0 553614805#1 -476243098#1 404178421#0 -468783431#0 -404178421#1 404178421#1 468783431#0 468783431#1 404178421#2 404178421#3 468783429#1 404178421#5 542622646#0 -542622646#0 553614804#1 553614801#0 553614801#1 468783444#0 468783444#1 468783444#2 468783435#2 468783435#3 -553614802#1 -553614802#0 553614800#0 553614800#1 -542622645#1 542622645#1 -553614800#1 -553614800#0 553614802#0 553614802#1 553614802#2 468783439#5 469004852 -948982084#0 553614805#2 948982084#1 469929466#0 -749707934#0 435784043#0 469004817 -469004817 -469004816 469004816 -435784043#0 553591173 -469929466#0 948982084#2 -553591190#3 553591165#2 553591188#1 553591145 553591148"/>
    </vehicle>
    <vehicle id="veh18" type="veh_passenger" depart="19.42" departLane="best">
        <route edges="553592344#3 -553614801#5 553614801#5 553614798#0 469158210#0 745539602#0 745539602#1 745539602#2 468783404#1 -476021735#2 -476021735#1 -468783406#1 -468783406#0 468783406#0 468783406#1 476021735#1 476021735#2 476021735#3 -542622631#1 542622631#1 542622631#2 542622631#3 542622631#4 542622631#5 542622631#6 542622631#7 542622631#8 542622631#9 468783439#3 468783439#4 -468783439#4 -469158211 468783435#2 468783435#3 553614802#2 -469004845#3 -469004845#2 -469004845#1 -469004845#0 -553592344#1 949044326#4 553591178#1 -542622640#3 -542622640#2 -542622640#1 -542622640#0 -469124635#3 -889589493#2 -889589493#1 -889589493#0 889589493#0 889589493#1 889589493#2 -469124635#2 -469124635#1 889589486#1 889589486#2 889589487#0 889589489#1 889589490#1 -889589490#1 -889589490#0 -889589486#1 469124635#1 -949044313#2 -949044313#1 -949044313#0 949044313#0 949044313#1 949044313#2 469124635#2 469124635#3 469124635#4 -469124635#4 542622640#0 542622640#1 542622640#2 469158201#0 -542622641#1 542622641#1 469158201#1 -542622641#0 -469158204 469158204 542622641#0 469158201#2 -469158205 -469158201#3 -469158201#2 -469158201#1 542622641#2 -542622641#2 -469158201#0 542622640#3 542622640#5 -542622640#5 553591178#2 553591178#3 553591178#4 -477948309#3 -469934362#4 -542622638#1 -542622638#0 469934362#2 469934362#3 469934362#4 -477948309#2 -469929216#2 -469929216#1 -469929212#1 -469934362#0 469929216#0 -469929216#0 469934362#0 -469929212#0 476021739#1 476021739#2 476021739#3 -476021739#3 -476021739#2 745539606#0 745539605#1 745539605#2 -745539605#2 -745539605#1 -745539605#0 -542622651#3 -542622651#2 542622654#2 542622634 887744048#1 -887744049 887744050 476021739#4 476021740#0 476021740#1 -745539606#4 -745539606#3 745539603 745539604 542622651#1 -542622654#1 -542622653#1 -542622653#0 -542622651#4 745539605#0 745539606#1 745539606#2 -745539606#2 -745539606#1 -745539606#0 -476021739#1 469929212#0 469929212#1 469929212#2 745539608 -745539608 -469929212#2 469929216#1 469929216#2 -477948309#1 -476021743 476021743 -477948309#0 -469124635#6 -553614797#1 553614806#0 553614806#1 553614806#2 -469124633#2 -469124633#1 -469124633#0 469124633#0 469124633#1 469124633#2 553592343#0 553592343#1 553592343#2 553592343#3 553592343#4 553592343#5 553592343#6 536513743 553591185 749091337 553591188#0 553591188#1 553591145 553591148"/>
    </vehicle>
    <vehicle id="veh19" type="veh_passenger" depart="20.50" departLane="best" departSpeed="max">
        <route edges="469929210 553591140 553591143 553591151#1 749091336 553591160 553591163 948982088 949044326#1 949044326#2 -542622644#1 -469004845#0 -949044324 -469124634#1 -469124634#0 542622640#2 542622640#3 553614806#1 553614806#2 553592343#0 553592343#1 553592343#2 553592343#3 553592343#4 553592343#5 553592343#6 536513743 553591185 749091337 553591188#0 553591188#1 553591145 553591148"/>
    </vehicle>
    <vehicle id="veh20" type="veh_passenger" depart="21.58" departLane="best" departSpeed="max">
        <route edges="-469158246 469158246"/>
    </vehicle>
    <vehicle id="veh21" type="veh_passenger" depart="22.65" departLane="best">
        <route edges="-392180558#0 -867910977 392180564#0 392180564#1 392180564#2 720844405 -330084824#4 -612344427#4 -612344427#3 612344427#3 612344427#4 -330084824#3 -330084824#2 392180566#0 392180566#1 -392180564#0 867910977 392180558#0 -867910979#1 867910979#1 392180559#0 -392180559#0 392180558#1 -392180550#2 -392180555#2 392180555#2 392180550#2 -392180558#1"/>
    </vehicle>
    <vehicle id="veh22" type="veh_passenger" depart="23.73" departLane="best">