<?xml version="1.0" encoding="UTF-8"?>

<!-- generated on 2022-05-11 22:07:04 by Eclipse SUMO polyconvert Version 1.13.0
<configuration xmlns:xsi="http://www.w3.org/2001/XMLSchema-instance" xsi:noNamespaceSchemaLocation="http://sumo.dlr.de/xsd/polyconvertConfiguration.xsd">

    <input>
        <net-file value="osm.net.xml"/>
        <osm-files value="osm_bbox.osm.xml.gz"/>
        <osm.keep-full-type value="true"/>
        <type-file value="C:\Users\ths06\Desktop\2022-1\Reinforcement_Learning-Prof.Lee\Project\sumo\Lib\site-packages\sumo\data\typemap\osmPolyconvert.typ.xml"/>
    </input>

    <output>
        <output-file value="osm.poly.xml"/>
    </output>

    <processing>
        <poi-layer-offset value="5"/>
    </processing>

    <report>
        <verbose value="true"/>
    </report>

</configuration>
-->

<additional xmlns:xsi="http://www.w3.org/2001/XMLSchema-instance" xsi:noNamespaceSchemaLocation="http://sumo.dlr.de/xsd/additional_file.xsd">
    <location netOffset="-445964.14,-3945215.16" convBoundary="-9425.56,-3843.69,13594.69,19326.76" origBoundary="128.297444,35.615288,128.553450,35.822976" projParameter="+proj=utm +zone=52 +ellps=WGS84 +datum=WGS84 +units=m +no_defs"/>

    <poly id="1030287036" type="amenity.parking" color="184,184,179" fill="1" layer="-1.00" shape="5501.802958,4770.052862 5376.159070,4771.117191 5375.482238,4692.139163 5501.127183,4691.063745 5501.802958,4770.052862"/>
    <poly id="1030344545" type="landuse.residential" color="235,235,227" fill="1" layer="-3.00" shape="6007.232636,5728.784647 6002.727951,5728.919920 5986.259007,5734.987255 5986.422887,5745.212627 5974.524809,5765.041854 5998.961839,5780.304502 6018.613342,5785.599746 6020.498231,5771.115296 6020.060621,5753.759641 6015.481414,5740.108717 6007.731264,5735.669701 6007.232636,5728.784647"/>
    <poly id="1030345538" type="building.house" color="255,230,230" fill="1" layer="-1.00" shape="5985.532787,5754.600756 6005.086000,5763.456839 6010.002935,5754.235491 6018.109007,5759.249337 6010.607886,5780.785001 5980.063937,5767.152521 5985.532787,5754.600756"/>
    <poly id="1037331662" type="amenity.parking" color="184,184,179" fill="1" layer="-1.00" shape="6174.042139,4481.102988 6118.859382,4479.936333 6120.388068,4422.796479 6175.936237,4422.863136 6174.042139,4481.102988"/>
    <poly id="1037331663" type="building.yes" color="255,230,230" fill="1" layer="-1.00" shape="6216.978714,4530.317112 6209.869509,4507.285340 6248.380015,4487.302248 6251.660039,4481.417279 6262.193791,4456.460534 6277.641959,4455.279448 6269.760496,4495.605632 6258.786134,4505.924142 6216.978714,4530.317112"/>
    <poly id="1037331664" type="building.yes" color="255,230,230" fill="1" layer="-1.00" shape="6296.098527,4535.747910 6291.590628,4518.558339 6344.773259,4489.346472 6356.919624,4490.013318 6386.398723,4500.103604 6383.203020,4521.726708 6349.314461,4512.758142 6296.098527,4535.747910"/>
    <poly id="1037331665" type="amenity.parking" color="184,184,179" fill="1" layer="-1.00" shape="6314.868726,4538.209187 6314.839241,4532.719122 6350.799877,4516.410319 6384.699492,4525.755937 6383.295334,4538.940002 6314.868726,4538.209187"/>
    <poly id="1037331686" type="building.yes" color="255,230,230" fill="1" layer="-1.00" shape="6275.821551,4801.727952 6143.784260,4805.011894 6144.736051,4776.801414 6205.426219,4776.108475 6220.266384,4730.986560 6205.882321,4723.011649 6206.198856,4714.580507 6277.202747,4715.296611 6277.283390,4735.349364 6240.478510,4735.813467 6224.501223,4781.496034 6274.580454,4779.562984 6275.821551,4801.727952"/>
    <poly id="1037331689" type="amenity.parking" color="184,184,179" fill="1" layer="-1.00" shape="6141.090656,4711.515092 6141.348561,4690.539928 6181.642354,4691.043758 6171.765657,4711.904361 6141.090656,4711.515092"/>
    <poly id="1037331693" type="leisure.pitch" color="207,245,201" fill="1" layer="-2.00" shape="6280.727953,4800.492620 6281.949134,4760.035847 6303.468713,4760.674424 6302.247494,4801.142284 6280.727953,4800.492620"/>
    <poly id="1037331693#1" type="sport.soccer" color="79,230,125" fill="1" layer="-2.00" shape="6280.727953,4800.492620 6281.949134,4760.035847 6303.468713,4760.674424 6302.247494,4801.142284 6280.727953,4800.492620"/>
    <poly id="1037331694" type="leisure.pitch" color="207,245,201" fill="1" layer="-2.00" shape="6287.177438,4737.880475 6286.867189,4703.720741 6302.772920,4703.579820 6303.083108,4737.739554 6287.177438,4737.880475"/>
    <poly id="1037331694#1" type="sport.tennis" color="79,230,125" fill="1" layer="-2.00" shape="6287.177438,4737.880475 6286.867189,4703.720741 6302.772920,4703.579820 6303.083108,4737.739554 6287.177438,4737.880475"/>
    <poly id="1037331695" type="amenity.parking" color="184,184,179" fill="1" layer="-1.00" shape="6145.322165,4816.716089 6144.561683,4811.595976 6276.610740,4810.519163 6276.634349,4814.911217 6145.322165,4816.716089"/>
    <poly id="153181872" type="natural.wood" color="140,196,107" fill="1" layer="-4.00" shape="4136.328399,7696.859703 4228.574927,7852.498224 4222.775846,8084.331193 4110.026996,8285.642625 4036.013635,8325.323115 3933.443415,8319.368726 3924.612242,8200.163090 3809.187981,8221.345895 3761.508804,8333.739583 3452.446960,8194.822572 3362.637534,8214.378983 3219.275260,8170.655309 3135.943851,8149.537723 3123.333444,8037.208945 3091.125589,7436.856680 3103.672783,7191.130750 3108.367533,6569.782128 3336.718426,6672.235968 3546.893510,6824.533024 3655.020209,7079.654502 3748.843157,7212.375333 3703.599285,7295.695663 3826.185967,7372.885701 4006.590181,7482.537712 4080.695800,7482.120371 4234.896957,7568.698950 4136.328399,7696.859703"/>
    <poly id="208019101" type="amenity.bus_station" color="237,199,199" fill="1" layer="-1.00" shape="3518.930362,5485.056343 3533.398718,5491.717664 3529.734086,5499.591234 3521.361487,5495.734659 3509.563637,5521.156776 3503.467966,5518.363136 3518.930362,5485.056343"/>
    <poly id="208019101#1" type="building.yes" color="255,230,230" fill="1" layer="-1.00" shape="3518.930362,5485.056343 3533.398718,5491.717664 3529.734086,5499.591234 3521.361487,5495.734659 3509.563637,5521.156776 3503.467966,5518.363136 3518.930362,5485.056343"/>
    <poly id="392538138" type="amenity.parking" color="184,184,179" fill="1" layer="-1.00" shape="5067.794400,6240.081793 5081.756725,6235.801169 5089.266840,6260.693271 5065.118957,6271.673803 5067.794400,6240.081793"/>
    <poly id="392538147" type="leisure.park" color="207,245,201" fill="1" layer="-2.00" shape="4979.168117,5949.010944 4978.862393,5946.073409 4979.543172,5943.208065 4981.139858,5940.736953 4983.463884,5938.916217 4986.272278,5937.980119 4989.221700,5938.008197 4992.004688,5939.024330 4994.294770,5940.886132 4995.773539,5943.273712 4996.430909,5945.998569 4996.183992,5948.794968 4995.058275,5951.363299 4993.179061,5953.458861 4990.735044,5954.847692 4987.969743,5955.395351 4985.172342,5955.044784 4982.514539,5953.761768 4980.431243,5951.665906 4979.168117,5949.010944"/>
    <poly id="392538151" type="leisure.park" color="207,245,201" fill="1" layer="-2.00" shape="5030.409516,5844.113890 5014.164665,5888.990646 5001.944533,5920.524432 5002.323484,5936.726890 5003.362247,5942.987802 5002.641619,5953.384432 5014.929710,5970.231000 5049.286625,6023.845864 5081.206335,6068.667712 5123.289751,6132.400002 5130.660778,6141.898022 5153.440213,6168.203441 5185.950081,6147.816008 5199.903741,6138.633218 5213.972860,6127.408996 5235.114024,6104.211579 5253.572932,6080.186000 5269.835917,6053.288754 5279.425539,6028.590998 5285.766956,6002.158641 5283.266961,5973.578721 5283.040930,5934.050195 5279.175842,5908.949381 5275.168866,5889.317411 5267.184141,5865.270722 5246.919805,5832.462729 5213.634559,5804.196181 5199.295846,5796.100646 5171.093847,5785.763289 5147.892373,5781.565317 5108.870175,5781.103614 5071.805303,5782.860663 5051.924979,5785.399300 5045.266368,5801.795850 5030.409516,5844.113890"/>
    <poly id="436662400" type="building.university" color="255,230,230" fill="1" layer="-1.00" shape="4841.057006,5928.989568 4835.040187,5907.638652 4897.629247,5890.167011 4903.636879,5911.518017 4841.057006,5928.989568"/>
    <poly id="436662403" type="building.commercial" color="255,230,230" fill="1" layer="-1.00" shape="4919.216177,5939.437661 4913.760411,5919.714030 4923.280843,5917.010532 4928.736527,5936.723078 4919.216177,5939.437661"/>
    <poly id="453412692" type="waterway.river" color="181,209,209" fill="0" layer="-4.00" shape="4045.775501,98.177195 3877.393653,207.420513 3763.664325,362.775424 3677.208059,531.508930 3619.009948,887.649056 3620.237330,1104.223003 3683.455608,1291.430896 3861.467450,1516.666527 3946.037895,1703.744747 3903.897241,1808.396267 3883.333378,1949.660917 3680.230996,2608.172286 3414.038274,3094.954393 3210.132688,3486.535216 3099.034766,3699.915508 2983.383682,3847.495938 1976.514379,4328.871145 1882.696294,4388.516506 1811.640018,4441.108014 1762.787595,4478.030333 1727.369929,4523.758087 1699.747977,4567.221780 1651.835381,4573.049845 1553.598574,4554.762966 1482.918450,4528.128644 1452.776638,4527.830032 1412.219290,4539.605254 1371.472748,4559.134717 1322.782645,4590.978651 1270.393823,4633.769919 1228.199219,4683.566179 1205.551242,4739.812556 1129.617827,4912.792242"/>
    <poly id="468556945" type="amenity.school" color="237,199,199" fill="1" layer="-2.00" shape="3181.822729,5451.143445 3188.907293,5400.647933 3140.896509,5383.952976 3130.561281,5348.685963 3138.065351,5211.952087 3265.562138,5187.830688 3247.460624,5326.000339 3282.053821,5333.145157 3278.801411,5408.385860 3247.009855,5408.567571 3238.071566,5457.709386 3181.822729,5451.143445"/>
    <poly id="468654777" type="building.commercial" color="255,230,230" fill="1" layer="-1.00" shape="4996.763164,5404.791581 4996.642666,5382.964369 5009.617326,5381.450869 5020.867172,5380.523659 5021.576232,5404.088973 4996.763164,5404.791581"/>
    <poly id="468654778" type="building.commercial" color="255,230,230" fill="1" layer="-1.00" shape="4993.734408,5378.954246 5018.550669,5378.817274 5018.411132,5353.529651 4994.177001,5354.240161 4993.734408,5378.954246"/>
    <poly id="468654779" type="building.residential" color="255,230,230" fill="1" layer="-1.00" shape="5033.550365,5377.015351 5053.176699,5377.472768 5054.227468,5359.654186 5032.882573,5360.925413 5033.550365,5377.015351"/>
    <poly id="468656660" type="building.residential" color="255,230,230" fill="1" layer="-1.00" shape="5075.532206,5367.511454 5090.539814,5367.140374 5091.008039,5347.029089 5075.998807,5347.111800 5075.532206,5367.511454"/>
    <poly id="468656661" type="building.commercial" color="255,230,230" fill="1" layer="-1.00" shape="5002.963776,5290.626843 5020.292811,5292.827130 5023.607299,5265.512910 5001.395237,5267.077369 5002.963776,5290.626843"/>
    <poly id="468656663" type="building.residential" color="255,230,230" fill="1" layer="-1.00" shape="5034.644367,5330.957824 5048.501949,5332.034900 5049.569652,5315.647016 5034.554065,5314.587417 5034.644367,5330.957824"/>
    <poly id="468656665" type="building.residential" color="255,230,230" fill="1" layer="-1.00" shape="5057.041274,5310.437226 5070.311917,5310.075690 5070.527027,5296.576273 5057.545813,5296.925120 5057.041274,5310.437226"/>
    <poly id="468656667" type="building.residential" color="255,230,230" fill="1" layer="-1.00" shape="5076.095091,5312.051358 5087.063465,5312.567666 5087.862327,5299.919071 5076.903473,5301.132967 5076.095091,5312.051358"/>
    <poly id="468656668" type="amenity.school" color="237,199,199" fill="1" layer="-2.00" shape="5004.430923,5223.682154 5130.232890,5222.899969 5128.904112,5108.078075 5003.619894,5109.522878 5004.430923,5223.682154"/>
    <poly id="468656669" type="amenity.school" color="237,199,199" fill="1" layer="-2.00" shape="5142.565616,5223.065003 5234.920719,5224.287438 5234.410728,5100.155374 5142.033609,5106.674838 5142.565616,5223.065003"/>
    <poly id="468656670" type="leisure.park" color="207,245,201" fill="1" layer="-2.00" shape="4996.490856,5103.062669 4997.327479,5048.100184 5241.537020,5046.844280 5243.690076,5099.505470 4996.490856,5103.062669"/>
    <poly id="468656671" type="amenity.hospital" color="237,199,199" fill="1" layer="-1.00" shape="4999.158078,5010.933907 5097.775387,5010.312491 5097.085392,4903.117990 4998.476003,4903.750441 4999.158078,5010.933907"/>
    <poly id="468656672" type="amenity.townhall" color="237,199,199" fill="1" layer="-1.00" shape="5134.442822,4929.187795 5192.186128,4929.169622 5192.175676,4907.519287 5134.432230,4907.537459 5134.442822,4929.187795"/>
    <poly id="468656672#1" type="building.public" color="255,230,230" fill="1" layer="-1.00" shape="5134.442822,4929.187795 5192.186128,4929.169622 5192.175676,4907.519287 5134.432230,4907.537459 5134.442822,4929.187795"/>
    <poly id="468967490" type="landuse.residential" color="235,235,227" fill="1" layer="-3.00" shape="5261.501703,5240.634359 5262.366074,5045.410029 5511.840745,5044.043920 5512.862176,5231.050210 5507.556116,5240.218498 5261.501703,5240.634359"/>
    <poly id="468996379" type="leisure.park" color="207,245,201" fill="1" layer="-2.00" shape="4993.832153,5352.411984 5017.840661,5351.802541 5017.784356,5341.598763 4993.613400,5342.286743 4993.832153,5352.411984"/>
    <poly id="468998295" type="landuse.residential" color="235,235,227" fill="1" layer="-3.00" shape="4222.727829,4700.412670 4204.790572,4604.528233 4199.078388,4529.826392 4205.898848,4413.306238 4370.523189,4417.763924 4367.511099,4570.110033 4372.462286,4625.472812 4341.601568,4635.649802 4348.207552,4669.774376 4222.727829,4700.412670"/>
    <poly id="468998296" type="landuse.residential" color="235,235,227" fill="1" layer="-3.00" shape="4381.718780,4623.890466 4375.844389,4570.085638 4382.896293,4418.471175 4534.356848,4418.391439 4529.773308,4566.897487 4542.823691,4616.137136 4423.383571,4651.064577 4417.220722,4615.229402 4381.718780,4623.890466"/>
    <poly id="469004815" type="leisure.park" color="207,245,201" fill="1" layer="-2.00" shape="5585.889860,5711.341405 5623.444585,5732.997769 5628.650701,5728.765756 5640.894277,5711.041538 5639.672467,5704.315720 5603.196375,5684.705312 5585.889860,5711.341405"/>
    <poly id="469004818" type="landuse.residential" color="235,235,227" fill="1" layer="-3.00" shape="4958.554689,5230.945243 4943.927094,5236.272297 4850.275483,5236.191391 4816.278323,5233.562472 4727.750413,5217.693585 4721.750750,5209.341787 4774.076298,5010.892505 4779.393597,4995.701080 4893.456839,5031.271736 4962.948112,5038.640504 4962.411561,5069.266813 4958.554689,5230.945243"/>
    <poly id="469004819" type="landuse.residential" color="235,235,227" fill="1" layer="-3.00" shape="4779.393597,4995.701080 4806.281831,4890.871436 4812.787669,4886.043906 4821.048907,4884.500801 4875.308033,4895.735457 4944.287269,4892.115357 4955.192368,4894.184655 4960.966150,4904.234838 4962.911357,5027.072381 4962.948112,5038.640504 4893.456839,5031.271736 4779.393597,4995.701080"/>
    <poly id="469004820" type="leisure.park" color="207,245,201" fill="1" layer="-2.00" shape="4529.142862,4918.176723 4579.337136,4963.083540 4668.094540,5019.743887 4605.759528,5174.970859 4594.048219,5167.804433 4549.503460,5144.472126 4510.063975,5116.741562 4455.152919,5076.087283 4409.278548,5038.399716 4409.746488,5029.845627 4469.976817,4964.857588 4505.584816,4934.878582 4529.142862,4918.176723"/>
    <poly id="469004824" type="amenity.school" color="237,199,199" fill="1" layer="-2.00" shape="4668.094540,5019.743887 4605.759528,5174.970859 4688.529681,5209.637177 4699.325443,5208.368252 4704.983923,5202.524933 4761.816880,4988.112207 4785.399793,4890.964985 4776.330433,4880.567169 4695.508243,4840.343488 4655.448028,4811.783869 4642.840920,4809.569119 4626.330567,4824.612126 4529.142862,4918.176723 4579.337136,4963.083540 4668.094540,5019.743887"/>
    <poly id="469004828" type="landuse.residential" color="235,235,227" fill="1" layer="-3.00" shape="4435.350758,4796.306214 4393.043566,4679.938585 4433.984405,4673.110553 4545.388049,4639.547885 4551.292551,4642.088203 4554.846274,4657.940202 4592.824224,4751.140541 4622.428847,4793.333897 4536.402411,4881.390458 4515.597224,4896.901263 4435.350758,4796.306214"/>
    <poly id="469004831" type="landuse.residential" color="235,235,227" fill="1" layer="-3.00" shape="4401.072683,5012.569305 4369.998644,4987.587654 4341.116890,4948.563216 4283.449770,4868.473259 4245.056801,4790.516099 4231.166049,4759.482559 4226.562749,4727.587297 4393.043566,4679.938585 4435.350758,4796.306214 4515.597224,4896.901263 4401.072683,5012.569305"/>
    <poly id="469004836" type="landuse.commercial" color="209,209,204" fill="1" layer="-3.00" shape="4560.093343,4511.537823 4559.571263,4424.273638 4572.856826,4416.602070 4645.382486,4418.738586 4749.526623,4414.977106 4750.916145,4556.196080 4784.385246,4639.384497 4819.563393,4663.690458 4878.164793,4685.981399 4916.391959,4690.694564 4955.003527,4688.018904 4962.584736,4697.648722 4961.928884,4745.999716 4960.373568,4787.124095 4959.401570,4861.774535 4945.948864,4870.245039 4900.634496,4871.449389 4854.426390,4868.111445 4802.733285,4856.263759 4795.883973,4854.626916 4767.734343,4844.567793 4734.740816,4830.675830 4700.021398,4812.323738 4669.102321,4795.658738 4640.662665,4769.297270 4616.480806,4740.649562 4600.582681,4714.506847 4584.478958,4677.451369 4573.026275,4637.220071 4560.093343,4511.537823"/>
    <poly id="469004838" type="leisure.park" color="207,245,201" fill="1" layer="-2.00" shape="4952.079219,4419.068898 4961.353549,4427.214208 4963.328077,4476.726342 4961.578072,4533.401904 4909.497314,4533.589870 4854.809714,4590.824499 4857.791632,4658.764948 4819.367376,4638.103702 4793.516574,4608.677277 4783.229309,4585.919301 4776.322688,4559.293882 4830.592091,4555.676863 4875.952747,4515.119677 4881.697957,4420.167795 4952.079219,4419.068898"/>
    <poly id="469004843" type="natural.water" color="181,209,209" fill="1" layer="-4.00" shape="5155.810019,4438.365108 5248.788090,4437.854134 5230.239740,4495.653355 5195.427035,4536.095263 5180.923610,4593.861280 5197.357737,4642.073913 5170.352461,4632.827987 5138.000559,4630.321853 5132.386494,4590.102113 5157.748571,4545.685756 5138.684216,4509.566187 5139.729716,4454.558265 5155.810019,4438.365108"/>
    <poly id="469004844" type="natural.water" color="181,209,209" fill="1" layer="-4.00" shape="5051.890397,4284.201482 5061.027196,4250.965710 5062.782681,4206.645971 5074.008064,4196.080579 5096.050479,4192.798118 5117.380593,4206.411802 5116.278680,4252.802016 5116.919939,4287.104125 5101.134920,4299.447010 5092.465121,4343.560815 5079.941715,4341.855180 5069.381468,4299.034083 5051.890397,4284.201482"/>
    <poly id="469004854" type="leisure.park" color="207,245,201" fill="1" layer="-2.00" shape="5754.954910,5380.640546 5691.045048,5552.017346 5613.905112,5503.258299 5533.399010,5462.836834 5527.795679,5453.994318 5528.357786,5260.357763 5534.919894,5255.874287 5730.076590,5252.892127 5754.954910,5380.640546"/>
    <poly id="469004858" type="landuse.residential" color="235,235,227" fill="1" layer="-3.00" shape="5792.772758,4877.440961 5791.573908,4669.983303 5790.868089,4425.000930 5802.163940,4415.645041 6036.351971,4413.667085 6042.636298,4883.585488 5792.772758,4877.440961"/>
    <poly id="469124638" type="landuse.industrial" color="209,209,204" fill="1" layer="-3.00" shape="5542.898837,3697.181998 5706.835855,3850.935906 5837.459082,3709.432872 5647.347107,3543.252533 5542.898837,3697.181998"/>
    <poly id="469232831" type="amenity.university" color="237,199,199" fill="1" layer="-2.00" shape="5153.202645,6192.428391 5211.542130,6150.958330 5226.593246,6148.868051 5255.741280,6168.605888 5297.652234,6201.228531 5326.970774,6186.138641 5355.707762,6168.911396 5365.592563,6125.423270 5382.633457,6106.718518 5440.822054,6062.178503 5484.168573,6044.672114 5516.372575,6032.661593 5526.713417,6016.178740 5495.543480,5980.701281 5480.575572,5964.977853 5468.222204,5924.450871 5465.412145,5898.623275 5432.705873,5865.217434 5416.668031,5859.027479 5392.762957,5838.628187 5373.970419,5818.433865 5336.133737,5821.303183 5316.865713,5803.518421 5302.904599,5778.484078 5292.167149,5767.185403 5271.725140,5756.416946 5275.196400,5727.892987 5265.988585,5685.430200 5274.495701,5643.103077 5272.350053,5629.649897 5268.209090,5603.763122 5257.122011,5584.857708 5233.147695,5584.989397 4977.839534,5590.532888 4964.786499,5590.904457 4709.840310,5598.061911 4766.754584,5618.986087 4789.941976,5661.326508 4755.165407,5705.452466 4779.432095,5728.731829 4780.811886,5763.828495 4809.182225,5788.116684 4892.076680,5869.312605 4682.299640,5879.548593 4638.892932,5913.762912 4578.261931,5951.323135 4558.111583,5992.994918 4559.996688,6042.319055 4512.793745,6063.933130 4484.835039,6102.066111 4455.865626,6153.569996 4450.899928,6173.174086 4511.679768,6393.021924 4538.675760,6480.948439 4548.651716,6508.166661 4559.902794,6517.465132 4576.722206,6526.022748 4602.585687,6527.697723 4729.801538,6488.347901 4845.117814,6459.569408 5021.621149,6415.492163 5044.082894,6403.955144 5054.949932,6392.903602 5062.955474,6376.410878 5059.593963,6267.190066 5092.868028,6241.119261 5141.504757,6202.164499 5153.202645,6192.428391"/>
    <poly id="469232833" type="amenity.parking" color="184,184,179" fill="1" layer="-1.00" shape="4710.626730,5961.223696 4820.239310,5930.458054 4831.299134,5973.742020 4734.355388,5998.503292 4717.539942,5989.180040 4710.626730,5961.223696"/>
    <poly id="469235051" type="leisure.park" color="207,245,201" fill="1" layer="-2.00" shape="4678.375578,5917.403219 4680.436309,5897.515950 4698.589825,5898.502047 4702.396109,5930.634919 4678.375578,5917.403219"/>
    <poly id="469235052" type="natural.water" color="181,209,209" fill="1" layer="-4.00" shape="4644.745678,5926.674046 4647.934190,5951.800558 4627.232660,5988.772483 4639.058261,6000.419240 4699.383623,5963.227143 4693.612108,5943.749403 4687.032305,5935.112473 4649.948651,5923.606065 4644.745678,5926.674046"/>
    <poly id="469235053" type="amenity.parking" color="184,184,179" fill="1" layer="-1.00" shape="4631.472630,6040.279629 4622.068943,6000.513750 4610.732458,5997.105217 4584.688830,6013.720948 4598.503943,6049.602420 4631.472630,6040.279629"/>
    <poly id="469771332" type="building.yes" color="255,230,230" fill="1" layer="-1.00" shape="5154.436557,2633.585439 5029.323278,2631.323858 5027.780159,2428.526981 5158.354783,2347.018889 5154.436557,2633.585439"/>
    <poly id="470298246" type="building.public" color="255,230,230" fill="1" layer="-1.00" shape="5212.269446,4931.931903 5223.435009,4932.025830 5223.496538,4923.462940 5239.521030,4923.596741 5239.587326,4915.898953 5212.397297,4915.682315 5212.269446,4931.931903"/>
    <poly id="470298783" type="leisure.playground" color="207,245,201" fill="1" layer="-2.00" shape="5096.939011,5535.128739 5164.530221,5535.000613 5164.449851,5489.149209 5096.858293,5489.277331 5096.939011,5535.128739"/>
    <poly id="471720029" type="amenity.community_centre" color="237,199,199" fill="1" layer="-1.00" shape="4467.255785,5506.854486 4482.575220,5468.359448 4471.323544,5452.716782 4414.206836,5436.365269 4402.941631,5462.049372 4438.576204,5498.806928 4467.255785,5506.854486"/>
    <poly id="471720029#1" type="building.yes" color="255,230,230" fill="1" layer="-1.00" shape="4467.255785,5506.854486 4482.575220,5468.359448 4471.323544,5452.716782 4414.206836,5436.365269 4402.941631,5462.049372 4438.576204,5498.806928 4467.255785,5506.854486"/>
    <poly id="471720344" type="leisure.park" color="207,245,201" fill="1" layer="-2.00" shape="4324.439686,5404.158593 4346.860550,5427.058927 4359.117540,5425.049375 4402.498570,5455.618828 4415.744285,5431.398819 4482.475531,5452.111084 4489.040377,5428.771408 4556.896387,5450.032527 4583.462083,5465.146373 4600.843268,5432.862354 4496.115587,5347.687004 4454.710289,5320.999154 4423.573734,5336.445868 4403.987656,5323.789061 4398.343257,5311.054384 4370.970791,5300.659443 4338.137243,5311.945573 4324.439686,5404.158593"/>
    <poly id="471720345" type="historic.ruins" color="128,255,128" fill="1" layer="-1.00" shape="4409.001038,5322.363535 4424.953000,5333.931506 4453.031916,5320.176666 4412.209280,5299.042556 4409.001038,5322.363535"/>
    <poly id="471721993" type="building.apartments" color="255,230,230" fill="1" layer="-1.00" shape="3609.088250,5494.848009 3603.152902,5480.451753 3659.055271,5457.929497 3663.877755,5472.332099 3609.088250,5494.848009"/>
    <poly id="471724761" type="amenity.dojo" color="237,199,199" fill="1" layer="-1.00" shape="3324.792651,5971.501820 3372.041827,6045.611391 3473.156681,5985.096985 3469.619837,5951.809520 3414.598588,5883.855124 3383.238109,5880.007726 3362.714398,5877.496126 3329.443248,5908.209666 3316.231293,5937.699617 3324.792651,5971.501820"/>
    <poly id="471724761#1" type="building.yes" color="255,230,230" fill="1" layer="-1.00" shape="3324.792651,5971.501820 3372.041827,6045.611391 3473.156681,5985.096985 3469.619837,5951.809520 3414.598588,5883.855124 3383.238109,5880.007726 3362.714398,5877.496126 3329.443248,5908.209666 3316.231293,5937.699617 3324.792651,5971.501820"/>
    <poly id="471724761#2" type="sport.drive" color="79,230,125" fill="1" layer="-2.00" shape="3324.792651,5971.501820 3372.041827,6045.611391 3473.156681,5985.096985 3469.619837,5951.809520 3414.598588,5883.855124 3383.238109,5880.007726 3362.714398,5877.496126 3329.443248,5908.209666 3316.231293,5937.699617 3324.792651,5971.501820"/>
    <poly id="471724763" type="leisure.sports_centre" color="207,245,201" fill="1" layer="-2.00" shape="3423.019000,5753.271971 3694.889945,5708.226314 3769.050454,5813.995682 3764.574413,5932.666090 3815.851560,6025.377681 3811.097574,6094.981147 3782.635152,6134.683133 3815.424707,6210.662559 3770.133233,6265.843612 3700.864179,6243.531779 3653.914378,6135.412442 3564.694929,6098.574151 3514.381562,6046.863542 3483.774649,5968.676664 3431.977645,5887.016972 3427.397642,5845.339249 3438.988350,5797.968219 3423.019000,5753.271971"/>
    <poly id="471724764" type="amenity.parking" color="184,184,179" fill="1" layer="-1.00" shape="3583.987749,5736.384505 3673.251842,5724.631202 3674.955365,5774.566272 3667.949968,5849.018436 3589.626313,5849.873334 3582.986351,5840.405688 3583.987749,5736.384505"/>
    <poly id="476017478" type="landuse.residential" color="235,235,227" fill="1" layer="-3.00" shape="5754.954910,5380.640546 5946.908942,5383.204022 5984.598683,5369.524039 6009.352653,5387.990418 5989.752975,5450.984540 5943.611882,5536.238596 5877.525303,5653.666237 5801.731850,5610.931996 5691.045048,5552.017346 5754.954910,5380.640546"/>
    <poly id="476017876" type="landuse.commercial" color="209,209,204" fill="1" layer="-3.00" shape="4988.170634,4684.153412 4992.961626,4681.697952 5125.490513,4680.279763 5375.895504,4680.036203 5503.071400,4679.262989 5509.590579,4683.408832 5508.204957,4795.827536 5508.458241,4860.422358 5499.879215,4868.410650 5198.265070,4871.338976 4983.416438,4876.826032 4984.564049,4714.308628 4985.230131,4689.094222 4988.170634,4684.153412"/>
    <poly id="476017877" type="landuse.residential" color="235,235,227" fill="1" layer="-3.00" shape="5792.772758,4877.440961 5791.573908,4669.983303 5767.257600,4414.392706 5543.506349,4413.803050 5534.736993,4420.161902 5531.754487,4863.345276 5541.004337,4870.504181 5792.772758,4877.440961"/>
    <poly id="476017878" type="leisure.park" color="207,245,201" fill="1" layer="-2.00" shape="5006.085414,4666.031030 5277.316792,4663.617894 5275.821036,4419.072236 5064.201466,4416.476003 5004.211611,4414.998922 4996.975005,4421.937697 4992.299534,4432.234124 4993.449451,4520.903408 4990.664591,4540.938732 4990.565812,4654.182349 4994.960073,4661.811152 5006.085414,4666.031030"/>
    <poly id="476018123" type="leisure.park" color="207,245,201" fill="1" layer="-2.00" shape="5184.624066,3956.818691 5236.662357,3938.398408 5301.070394,3908.375570 5335.224111,3889.144471 5341.857309,3889.207948 5346.673138,3892.841715 5359.780446,3911.835981 5290.578808,3968.703617 5163.102325,4018.693788 5164.716591,4313.870826 5281.642914,4334.002693 5503.074056,4340.144146 5505.677792,4376.187982 5503.647466,4382.177321 5495.696801,4384.361383 5276.618148,4391.195226 5004.834436,4388.487077 4996.223653,4385.806113 4991.621729,4381.561328 4988.235106,3995.832873 4988.736100,3989.874038 4993.403107,3986.199219 5001.860977,3984.056280 5070.614149,3980.815635 5121.721145,3972.459681 5184.624066,3956.818691"/>
    <poly id="476018124" type="landuse.residential" color="235,235,227" fill="1" layer="-3.00" shape="5164.716591,4313.870826 5281.642914,4334.002693 5503.074056,4340.144146 5498.948892,4247.542624 5491.034797,4210.063743 5484.204745,4177.237323 5450.334043,4069.337029 5410.391827,3986.436759 5359.780446,3911.835981 5290.578808,3968.703617 5163.102325,4018.693788 5164.716591,4313.870826"/>
    <poly id="476018820" type="tourism.museum" color="207,245,201" fill="1" layer="-2.00" shape="5542.257640,4387.268207 5766.619518,4388.542190 5776.935060,4378.614844 5777.128871,4236.023172 5775.368748,4138.517446 5772.056540,4080.128311 5754.760021,4012.686951 5722.287743,3930.155129 5675.632185,3857.050610 5453.081074,3999.124736 5482.960321,4075.336612 5516.503110,4194.518739 5526.433605,4279.823718 5529.680179,4377.288070 5542.257640,4387.268207"/>
    <poly id="476018825" type="amenity.university" color="237,199,199" fill="1" layer="-2.00" shape="5789.629336,4043.497943 6061.612958,3927.207831 6449.508523,4114.507217 6443.157911,4155.346307 6466.216330,4184.559472 6335.885329,4305.144543 6170.531292,4381.976217 6096.163834,4390.595814 6043.346432,4388.551733 5800.691847,4389.488493 5795.125390,4382.508966 5796.976811,4161.836181 5785.954840,4046.701113 5789.629336,4043.497943"/>