<?xml version="1.0" encoding="UTF-8"?>

<!-- generated on 2022-05-11 22:07:11 by Eclipse SUMO duarouter Version 1.13.0
<configuration xmlns:xsi="http://www.w3.org/2001/XMLSchema-instance" xsi:noNamespaceSchemaLocation="http://sumo.dlr.de/xsd/duarouterConfiguration.xsd">

    <input>
        <net-file value="C:\Users\ths06\Desktop\2022-1\Reinforcement_Learning-Prof.Lee\Project\sumo\2022-05-11-22-06-49\osm.net.xml"/>
        <route-files value="C:\Users\ths06\Desktop\2022-1\Reinforcement_Learning-Prof.Lee\Project\sumo\2022-05-11-22-06-49\osm.passenger.trips.xml"/>
    </input>

    <output>
        <output-file value="C:\Users\ths06\Desktop\2022-1\Reinforcement_Learning-Prof.Lee\Project\sumo\2022-05-11-22-06-49\osm.passenger.trips.xml.tmp"/>
        <write-trips value="true"/>
    </output>

    <time>
        <begin value="0"/>
        <end value="1800"/>
    </time>

    <report>
        <no-warnings value="true"/>
        <ignore-errors value="true"/>
        <no-step-log value="true"/>
    </report>

</configuration>
-->

<routes xmlns:xsi="http://www.w3.org/2001/XMLSchema-instance" xsi:noNamespaceSchemaLocation="http://sumo.dlr.de/xsd/routes_file.xsd">
    <vType id="veh_passenger" vClass="passenger"/>
    <trip id="veh0" type="veh_passenger" depart="0.00" departLane="best" from="469074096#0" to="-119010369#6"/>
    <trip id="veh1" type="veh_passenger" depart="1.08" departLane="best" from="-476021740#2" to="-470605351#1"/>
    <trip id="veh3" type="veh_passenger" depart="3.24" departLane="best" from="563903803#1" to="-392180566#2"/>
    <trip id="veh4" type="veh_passenger" depart="4.32" departLane="best" from="-867910973#1" to="-208019153"/>
    <trip id="veh5" type="veh_passenger" depart="5.39" departLane="best" from="-469158235" to="392180547#7"/>
    <trip id="veh6" type="veh_passenger" depart="6.47" departLane="best" from="-119010369#2" to="-469158232#1"/>
    <trip id="veh7" type="veh_passenger" depart="7.55" departLane="best" from="469124635#2" to="404178425"/>
    <trip id="veh8" type="veh_passenger" depart="8.63" departLane="best" from="-469158238#1" to="469074077#2"/>
    <trip id="veh10" type="veh_passenger" depart="10.79" departLane="best" from="542686773#1" to="471293180#1"/>
    <trip id="veh11" type="veh_passenger" depart="11.87" departLane="best" from="-553614797#2" to="-469124633#0"/>
    <trip id="veh12" type="veh_passenger" depart="12.95" departLane="best" from="887410044#1" to="-745539606#3"/>
    <trip id="veh13" type="veh_passenger" depart="14.02" departLane="best" departSpeed="max" from="-392180567#1" to="-404178421#5"/>
    <trip id="veh14" type="veh_passenger" depart="15.10" departLane="best" from="553591196#3" to="469074096#4"/>
    <trip id="veh15" type="veh_passenger" depart="16.18" departLane="best" from="542686777" to="480539968#0"/>
    <trip id="veh16" type="veh_passenger" depart="17.26" departLane="best" from="385977220" to="889589487#4"/>
    <trip id="veh17" type="veh_passenger" depart="18.34" departLane="best" from="-745539599" to="468783391#1"/>
    <trip id="veh18" type="veh_passenger" depart="19.42" departLane="best" from="553592344#3" to="469004817"/>
    <trip id="veh19" type="veh_passenger" depart="20.50" departLane="best" departSpeed="max" from="469929210" to="-37398225#11"/>
    <trip id="veh20" type="veh_passenger" depart="21.58" departLane="best" departSpeed="max" from="-469158246" to="-553591190#3"/>
    <trip id="veh21" type="veh_passenger" depart="22.65" departLane="best" from="-392180558#0" to="-471719156#4"/>
    <trip id="veh22" type="veh_passenger" depart="23.73" departLane="best" from="-401441828" to="-542622646#5"/>
    <trip id="veh23" type="veh_passenger" depart="24.81" departLane="best" from="-606024806#1" to="-469929212#0"/>
    <trip id="veh24" type="veh_passenger" depart="25.89" departLane="best" departSpeed="max" from="-471724762" to="749707934#4"/>
    <trip id="veh25" type="veh_passenger" depart="26.97" departLane="best" from="469124634#0" to="469074099#3"/>
    <trip id="veh26" type="veh_passenger" depart="28.05" departLane="best" from="-469124634#1" to="480539967#1"/>
    <trip id="veh27" type="veh_passenger" depart="29.13" departLane="best" departSpeed="max" from="-469074098" to="-887410043#1"/>
    <trip id="veh28" type="veh_passenger" depart="30.21" departLane="best" from="949044313#2" to="469158218#0"/>
    <trip id="veh29" type="veh_passenger" depart="31.28" departLane="best" from="392180550#3" to="469934362#1"/>
    <trip id="veh30" type="veh_passenger" depart="32.36" departLane="best" from="553591193#0" to="542622643"/>
    <trip id="veh31" type="veh_passenger" depart="33.44" departLane="best" from="-469158248" to="-208019153"/>
    <trip id="veh32" type="veh_passenger" depart="34.52" departLane="best" from="-542622644#1" to="-542622640#0"/>
    <trip id="veh33" type="veh_passenger" depart="35.60" departLane="best" from="-469158227#3" to="867910972#0"/>
    <trip id="veh34" type="veh_passenger" depart="36.68" departLane="best" from="553614802#2" to="-553615630#3"/>
    <trip id="veh35" type="veh_passenger" depart="37.76" departLane="best" from="469158201#2" to="-889589488#1"/>
    <trip id="veh37" type="veh_passenger" depart="39.91" departLane="best" departSpeed="max" from="-471721996" to="-477948309#3"/>
    <trip id="veh38" type="veh_passenger" depart="40.99" departLane="best" from="392180556#0" to="-542622632#5"/>
    <trip id="veh39" type="veh_passenger" depart="42.07" departLane="best" from="404178425" to="720844404#1"/>
    <trip id="veh40" type="veh_passenger" depart="43.15" departLane="best" departSpeed="max" from="-746033030" to="-470298776#0"/>
    <trip id="veh41" type="veh_passenger" depart="44.23" departLane="best" departSpeed="max" from="949044343" to="392180550#4"/>
    <trip id="veh42" type="veh_passenger" depart="45.31" departLane="best" from="-392180566#1" to="-37398225#3"/>
    <trip id="veh43" type="veh_passenger" depart="46.39" departLane="best" from="-468783398" to="469158210#3"/>
    <trip id="veh44" type="veh_passenger" depart="47.47" departLane="best" from="542622646#5" to="119001261#1"/>
    <trip id="veh45" type="veh_passenger" depart="48.54" departLane="best" from="-392180545#4" to="-887410044#3"/>
    <trip id="veh46" type="veh_passenger" depart="49.62" departLane="best" departSpeed="max" from="949044343" to="392180564#2"/>
    <trip id="veh47" type="veh_passenger" depart="50.70" departLane="best" from="889589487#4" to="553614798#2"/>
    <trip id="veh48" type="veh_passenger" depart="51.78" departLane="best" from="-119001261#2" to="476021742"/>
    <trip id="veh49" type="veh_passenger" depart="52.86" departLane="best" from="469158227#0" to="392180568#2"/>
    <trip id="veh50" type="veh_passenger" depart="53.94" departLane="best" departSpeed="max" from="-471724762" to="469158219#0"/>
    <trip id="veh51" type="veh_passenger" depart="55.02" departLane="best" from="-468783404#2" to="119010367#5"/>
    <trip id="veh52" type="veh_passenger" depart="56.10" departLane="best" from="-889589493#0" to="886096276"/>
    <trip id="veh53" type="veh_passenger" depart="57.18" departLane="best" from="553614802#1" to="-542622636#0"/>
    <trip id="veh55" type="veh_passenger" depart="59.33" departLane="best" from="745539606#4" to="553614802#2"/>
    <trip id="veh56" type="veh_passenger" depart="60.41" departLane="best" from="-542622636#2" to="469158216"/>
    <trip id="veh57" type="veh_passenger" depart="61.49" departLane="best" from="468783439#0" to="-469074099#0"/>
    <trip id="veh59" type="veh_passenger" depart="63.65" departLane="best" from="542622636#2" to="392180565#1"/>
    <trip id="veh61" type="veh_passenger" depart="65.81" departLane="best" departSpeed="max" from="-119010367#5" to="747964666"/>
    <trip id="veh62" type="veh_passenger" depart="66.88" departLane="best" from="553614805#1" to="553591188#1"/>
    <trip id="veh63" type="veh_passenger" depart="67.96" departLane="best" from="-542622640#1" to="-392180249#1"/>
    <trip id="veh64" type="veh_passenger" depart="69.04" departLane="best" from="553614805#0" to="867910973#4"/>
    <trip id="veh65" type="veh_passenger" depart="70.12" departLane="best" from="-392180563#1" to="385977220"/>
    <trip id="veh66" type="veh_passenger" depart="71.20" departLane="best" from="-392180550#3" to="542622636#3"/>
    <trip id="veh68" type="veh_passenger" depart="73.36" departLane="best" from="119001261#1" to="435784043#5"/>
    <trip id="veh69" type="veh_passenger" depart="74.44" departLane="best" departSpeed="max" from="-471721996" to="553614805#0"/>
    <trip id="veh70" type="veh_passenger" depart="75.51" departLane="best" from="-867910973#3" to="-469929216#1"/>
    <trip id="veh71" type="veh_passenger" depart="76.59" departLane="best" from="392180249#1" to="480539968#0"/>
    <trip id="veh72" type="veh_passenger" depart="77.67" departLane="best" from="-469158220#0" to="-553615628#4"/>
    <trip id="veh73" type="veh_passenger" depart="78.75" departLane="best" departSpeed="max" from="949044343" to="469158224#2"/>
    <trip id="veh74" type="veh_passenger" depart="79.83" departLane="best" from="-889589486#1" to="392180555#0"/>
    <trip id="veh75" type="veh_passenger" depart="80.91" departLane="best" from="-468783424#1" to="-470605352#0"/>
    <trip id="veh76" type="veh_passenger" depart="81.99" departLane="best" from="-553592344#1" to="469074077#0"/>
    <trip id="veh77" type="veh_passenger" depart="83.07" departLane="best" from="-469580585" to="-470298776#2"/>
    <trip id="veh78" type="veh_passenger" depart="84.14" departLane="best" from="-392180553#0" to="469158211"/>
    <trip id="veh79" type="veh_passenger" depart="85.22" departLane="best" departSpeed="max" from="-469158246" to="745539605#0"/>
    <trip id="veh80" type="veh_passenger" depart="86.30" departLane="best" from="553592343#6" to="-392180550#4"/>
    <trip id="veh81" type="veh_passenger" depart="87.38" departLane="best" from="-469929500" to="469158243#3"/>
    <trip id="veh82" type="veh_passenger" depart="88.46" departLane="best" from="-469158231" to="-469004845#2"/>
    <trip id="veh83" type="veh_passenger" depart="89.54" departLane="best" from="867910969" to="468783439#3"/>
    <trip id="veh85" type="veh_passenger" depart="91.70" departLane="best" from="542686777" to="-469158222"/>
    <trip id="veh86" type="veh_passenger" depart="92.77" departLane="best" from="-392180569" to="119010367#5"/>
    <trip id="veh87" type="veh_passenger" depart="93.85" departLane="best" from="-867910973#4" to="330084824#3"/>
    <trip id="veh88" type="veh_passenger" depart="94.93" departLane="best" from="471719156#1" to="469158246"/>
    <trip id="veh89" type="veh_passenger" depart="96.01" departLane="best" from="948982088" to="-435784043#0"/>
    <trip id="veh90" type="veh_passenger" depart="97.09" departLane="best" from="553592344#3" to="-480539966#0"/>
    <trip id="veh92" type="veh_passenger" depart="99.25" departLane="best" from="-867910972#5" to="-542622646#6"/>
    <trip id="veh93" type="veh_passenger" depart="100.33" departLane="best" from="-470605352#0" to="746033032#1"/>
    <trip id="veh94" type="veh_passenger" depart="101.40" departLane="best" from="-889589487#0" to="553614798#3"/>
    <trip id="veh95" type="veh_passenger" depart="102.48" departLane="best" from="392180547#3" to="-385977216#0"/>
    <trip id="veh96" type="veh_passenger" depart="103.56" departLane="best" from="949044361#1" to="553591193#2"/>
    <trip id="veh97" type="veh_passenger" depart="104.64" departLane="best" from="889589487#1" to="746033034"/>
    <trip id="veh98" type="veh_passenger" depart="105.72" departLane="best" from="553591196#4" to="-469158201#1"/>
    <trip id="veh99" type="veh_passenger" depart="106.80" departLane="best" from="119010369#0" to="-469929466#1"/>
    <trip id="veh100" type="veh_passenger" depart="107.88" departLane="best" from="-746033032#1" to="-392180249#2"/>
    <trip id="veh101" type="veh_passenger" depart="108.96" departLane="best" from="-745539600#0" to="942801979#1"/>
    <trip id="veh102" type="veh_passenger" depart="110.04" departLane="best" departSpeed="max" from="-471724762" to="542622651#2"/>
    <trip id="veh103" type="veh_passenger" depart="111.11" departLane="best" from="-889589493#2" to="119001261#2"/>
    <trip id="veh104" type="veh_passenger" depart="112.19" departLane="best" from="887410044#1" to="949044326#2"/>
    <trip id="veh105" type="veh_passenger" depart="113.27" departLane="best" from="392180550#1" to="476021739#6"/>
    <trip id="veh106" type="veh_passenger" depart="114.35" departLane="best" departSpeed="max" from="-469074089#1" to="-553614798#3"/>
    <trip id="veh107" type="veh_passenger" depart="115.43" departLane="best" from="889589487#0" to="469004845#1"/>
    <trip id="veh108" type="veh_passenger" depart="116.51" departLane="best" from="392180544" to="542622631#3"/>
    <trip id="veh109" type="veh_passenger" depart="117.59" departLane="best" from="-392180544" to="469074075"/>
    <trip id="veh110" type="veh_passenger" depart="118.67" departLane="best" from="150999762" to="553592343#5"/>
    <trip id="veh111" type="veh_passenger" depart="119.74" departLane="best" from="-469074093#4" to="887410043#0"/>
    <trip id="veh112" type="veh_passenger" depart="120.82" departLane="best" from="-392180558#1" to="-469158220#3"/>
    <trip id="veh113" type="veh_passenger" depart="121.90" departLane="best" from="468783411#0" to="469929207#1"/>
    <trip id="veh114" type="veh_passenger" depart="122.98" departLane="best" from="-469929466#0" to="-468783435#0"/>
    <trip id="veh115" type="veh_passenger" depart="124.06" departLane="best" from="563903802#1" to="-477948309#3"/>
    <trip id="veh116" type="veh_passenger" depart="125.14" departLane="best" from="468783408#1" to="469158201#2"/>
    <trip id="veh117" type="veh_passenger" depart="126.22" departLane="best" from="-867910971#1" to="469074074"/>
    <trip id="veh118" type="veh_passenger" depart="127.30" departLane="best" from="330084835" to="749707934#1"/>
    <trip id="veh119" type="veh_passenger" depart="128.37" departLane="best" from="-469158221#0" to="476021739#2"/>
    <trip id="veh120" type="veh_passenger" depart="129.45" departLane="best" from="-469934362#0" to="-889589488#1"/>
    <trip id="veh121" type="veh_passenger" depart="130.53" departLane="best" from="469158219#0" to="-553614800#3"/>
    <trip id="veh122" type="veh_passenger" depart="131.61" departLane="best" from="-542622645#0" to="542622632#0"/>
    <trip id="veh124" type="veh_passenger" depart="133.77" departLane="best" from="949044355#1" to="949044326#3"/>
    <trip id="veh125" type="veh_passenger" depart="134.85" departLane="best" departSpeed="max" from="-392180553#2" to="-469929466#0"/>
    <trip id="veh127" type="veh_passenger" depart="137.00" departLane="best" from="553614806#1" to="553614809#1"/>
    <trip id="veh128" type="veh_passenger" depart="138.08" departLane="best" from="-606024806#0" to="-469124633#0"/>
    <trip id="veh129" type="veh_passenger" depart="139.16" departLane="best" from="553591178#5" to="471720026"/>
    <trip id="veh130" type="veh_passenger" depart="140.24" departLane="best" from="468783439#5" to="942801979#1"/>
    <trip id="veh131" type="veh_passenger" depart="141.32" departLane="best" from="469124635#9" to="-118992945"/>
    <trip id="veh132" type="veh_passenger" depart="142.40" departLane="best" from="553591140" to="-553614800#2"/>
    <trip id="veh133" type="veh_passenger" depart="143.48" departLane="best" from="469158210#3" to="867910967"/>
    <trip id="veh134" type="veh_passenger" depart="144.56" departLane="best" departSpeed="max" from="-468995649" to="-468783424#0"/>
    <trip id="veh135" type="veh_passenger" depart="145.63" departLane="best" from="-435784043#3" to="468783404#1"/>
    <trip id="veh136" type="veh_passenger" depart="146.71" departLane="best" from="-476021739#4" to="469074098"/>
    <trip id="veh137" type="veh_passenger" depart="147.79" departLane="best" from="470298776#1" to="-469158238#1"/>
    <trip id="veh138" type="veh_passenger" depart="148.87" departLane="best" departSpeed="max" from="469074090" to="-542622636#1"/>
    <trip id="veh139" type="veh_passenger" depart="149.95" departLane="best" from="119010369#2" to="745539605#0"/>
    <trip id="veh140" type="veh_passenger" depart="151.03" departLane="best" from="553591196#2" to="-401441826#2"/>
    <trip id="veh141" type="veh_passenger" depart="152.11" departLane="best" from="-867910973#4" to="-542622646#3"/>
    <trip id="veh143" type="veh_passenger" depart="154.26" departLane="best" from="469074093#1" to="-542622632#4"/>
    <trip id="veh144" type="veh_passenger" depart="155.34" departLane="best" from="476243098#1" to="468783391#1"/>
    <trip id="veh145" type="veh_passenger" depart="156.42" departLane="best" from="-867910976" to="-119001261#1"/>
    <trip id="veh146" type="veh_passenger" depart="157.50" departLane="best" departSpeed="max" from="-392180554" to="553615628#4"/>
    <trip id="veh147" type="veh_passenger" depart="158.58" departLane="best" from="745539600#1" to="418087791"/>
    <trip id="veh148" type="veh_passenger" depart="159.66" departLane="best" from="553591178#6" to="469074070"/>
    <trip id="veh149" type="veh_passenger" depart="160.74" departLane="best" from="-469074077#1" to="-468783446"/>
    <trip id="veh150" type="veh_passenger" depart="161.82" departLane="best" from="-542622640#2" to="745539598#0"/>
    <trip id="veh151" type="veh_passenger" depart="162.90" departLane="best" from="542622651#5" to="553614798#2"/>
    <trip id="veh152" type="veh_passenger" depart="163.97" departLane="best" from="612344427#4" to="-469929212#1"/>
    <trip id="veh153" type="veh_passenger" depart="165.05" departLane="best" from="-470605351#3" to="-468783404#0"/>
    <trip id="veh154" type="veh_passenger" depart="166.13" departLane="best" from="542622639#0" to="553615628#5"/>
    <trip id="veh155" type="veh_passenger" depart="167.21" departLane="best" from="-747964664" to="469158201#4"/>
    <trip id="veh156" type="veh_passenger" depart="168.29" departLane="best" departSpeed="max" from="-469074089#1" to="747964667"/>
    <trip id="veh157" type="veh_passenger" depart="169.37" departLane="best" from="553614797#5" to="889589488#2"/>
    <trip id="veh158" type="veh_passenger" depart="170.45" departLane="best" from="542686778#2" to="553615628#1"/>
    <trip id="veh160" type="veh_passenger" depart="172.60" departLane="best" from="-553591190#0" to="747964669"/>
    <trip id="veh161" type="veh_passenger" depart="173.68" departLane="best" departSpeed="max" from="542686773#0" to="553614800#2"/>
    <trip id="veh162" type="veh_passenger" depart="174.76" departLane="best" from="542686778#2" to="-542622639#1"/>
    <trip id="veh163" type="veh_passenger" depart="175.84" departLane="best" from="542622644#1" to="-468783411#1"/>
    <trip id="veh164" type="veh_passenger" depart="176.92" departLane="best" from="553614801#1" to="553614797#4"/>
    <trip id="veh166" type="veh_passenger" depart="179.08" departLane="best" from="-948982084#2" to="-553614802#0"/>
    <trip id="veh167" type="veh_passenger" depart="180.16" departLane="best" from="542622651#3" to="-471293180#1"/>
    <trip id="veh168" type="veh_passenger" depart="181.23" departLane="best" departSpeed="max" from="-119010367#5" to="-469158227#0"/>
    <trip id="veh169" type="veh_passenger" depart="182.31" departLane="best" from="-542622654#2" to="553614800#3"/>
    <trip id="veh170" type="veh_passenger" depart="183.39" departLane="best" from="889589486#7" to="-542622646#7"/>
    <trip id="veh171" type="veh_passenger" depart="184.47" departLane="best" from="469074099#1" to="-889589492#0"/>
    <trip id="veh172" type="veh_passenger" depart="185.55" departLane="best" from="889589493#2" to="392180568#1"/>
    <trip id="veh173" type="veh_passenger" depart="186.63" departLane="best" from="867910972#3" to="-468783424#0"/>
    <trip id="veh174" type="veh_passenger" depart="187.71" departLane="best" from="889589487#3" to="-469158211"/>
    <trip id="veh175" type="veh_passenger" depart="188.79" departLane="best" from="887744048#1" to="-542622638#0"/>
    <trip id="veh176" type="veh_passenger" depart="189.86" departLane="best" from="-468783391#1" to="119010367#5"/>
    <trip id="veh177" type="veh_passenger" depart="190.94" departLane="best" from="471719156#0" to="-553615630#1"/>
    <trip id="veh178" type="veh_passenger" depart="192.02" departLane="best" from="468783431#1" to="392180553#0"/>
    <trip id="veh179" type="veh_passenger" depart="193.10" departLane="best" from="-745539606#0" to="469004817"/>
    <trip id="veh180" type="veh_passenger" depart="194.18" departLane="best" from="-471658993" to="471721996"/>
    <trip id="veh182" type="veh_passenger" depart="196.34" departLane="best" from="392047450#3" to="476021740#0"/>
    <trip id="veh183" type="veh_passenger" depart="197.42" departLane="best" from="476243098#2" to="469158244"/>
    <trip id="veh184" type="veh_passenger" depart="198.49" departLane="best" from="-553615630#3" to="-392180550#3"/>
    <trip id="veh185" type="veh_passenger" depart="199.57" departLane="best" from="-542622642" to="553592343#0"/>
    <trip id="veh186" type="veh_passenger" depart="200.65" departLane="best" from="470298782" to="-553614800#3"/>
    <trip id="veh187" type="veh_passenger" depart="201.73" departLane="best" departSpeed="max" from="-542622640#5" to="-948982091#0"/>
    <trip id="veh188" type="veh_passenger" depart="202.81" departLane="best" from="-746033032#3" to="-553614798#1"/>
    <trip id="veh189" type="veh_passenger" depart="203.89" departLane="best" from="-468783439#0" to="118992945"/>
    <trip id="veh190" type="veh_passenger" depart="204.97" departLane="best" departSpeed="max" from="867910973#0" to="469929212#0"/>
    <trip id="veh191" type="veh_passenger" depart="206.05" departLane="best" from="745539599" to="469124635#5"/>
    <trip id="veh192" type="veh_passenger" depart="207.13" departLane="best" departSpeed="max" from="-542622636#3" to="435784043#4"/>
    <trip id="veh193" type="veh_passenger" depart="208.20" departLane="best" from="-867910979#1" to="469004845#3"/>
    <trip id="veh194" type="veh_passenger" depart="209.28" departLane="best" from="469158201#0" to="330084824#10"/>
    <trip id="veh195" type="veh_passenger" depart="210.36" departLane="best" from="-889589486#8" to="-469929466#1"/>
    <trip id="veh196" type="veh_passenger" depart="211.44" departLane="best" from="118992945" to="745539600#1"/>
    <trip id="veh197" type="veh_passenger" depart="212.52" departLane="best" from="542622651#5" to="-469158204"/>
    <trip id="veh198" type="veh_passenger" depart="213.60" departLane="best" from="-392180561#5" to="392180554"/>
    <trip id="veh199" type="veh_passenger" depart="214.68" departLane="best" from="469074089#0" to="-745539606#0"/>
    <trip id="veh200" type="veh_passenger" depart="215.76" departLane="best" from="553591143" to="542622631#9"/>
    <trip id="veh201" type="veh_passenger" depart="216.83" departLane="best" from="469158220#0" to="-470605352#0"/>
    <trip id="veh202" type="veh_passenger" depart="217.91" departLane="best" departSpeed="max" from="-470298779" to="37398225#0"/>
    <trip id="veh203" type="veh_passenger" depart="218.99" departLane="best" from="553591196#5" to="-392180555#1"/>
    <trip id="veh204" type="veh_passenger" depart="220.07" departLane="best" from="-801000833" to="469158210#8"/>
    <trip id="veh205" type="veh_passenger" depart="221.15" departLane="best" from="-469158215#1" to="470605354"/>
    <trip id="veh208" type="veh_passenger" depart="224.39" departLane="best" from="480539970" to="542622640#3"/>
    <trip id="veh209" type="veh_passenger" depart="225.46" departLane="best" from="-435784043#2" to="119001261#3"/>
    <trip id="veh210" type="veh_passenger" depart="226.54" departLane="best" from="-469124635#8" to="886931959#1"/>
    <trip id="veh211" type="veh_passenger" depart="227.62" departLane="best" from="330084824#10" to="-37398225#9"/>
    <trip id="veh212" type="veh_passenger" depart="228.70" departLane="best" from="-470605351#3" to="553592343#1"/>
    <trip id="veh213" type="veh_passenger" depart="229.78" departLane="best" departSpeed="max" from="-942801979#1" to="550909499#2"/>
    <trip id="veh214" type="veh_passenger" depart="230.86" departLane="best" from="469158211" to="948982084#2"/>
    <trip id="veh215" type="veh_passenger" depart="231.94" departLane="best" from="468783411#1" to="867910975#0"/>
    <trip id="veh216" type="veh_passenger" depart="233.02" departLane="best" from="563903802#3" to="469124634#2"/>
    <trip id="veh217" type="veh_passenger" depart="234.09" departLane="best" from="470298781" to="392180547#6"/>
    <trip id="veh218" type="veh_passenger" depart="235.17" departLane="best" from="553591178#3" to="435784043#4"/>
    <trip id="veh220" type="veh_passenger" depart="237.33" departLane="best" from="119001261#0" to="-542622631#8"/>
    <trip id="veh221" type="veh_passenger" depart="238.41" departLane="best" from="-470298782" to="469158216"/>
    <trip id="veh223" type="veh_passenger" depart="240.57" departLane="best" from="469074076#6" to="-542622645#1"/>
    <trip id="veh224" type="veh_passenger" depart="241.65" departLane="best" from="-392180555#1" to="-542622654#1"/>
    <trip id="veh225" type="veh_passenger" depart="242.72" departLane="best" from="-476021739#3" to="-606024806#0"/>
    <trip id="veh226" type="veh_passenger" depart="243.80" departLane="best" from="392180249#2" to="-469074076#5"/>
    <trip id="veh227" type="veh_passenger" depart="244.88" departLane="best" from="-469929212#0" to="470605351#1"/>
    <trip id="veh228" type="veh_passenger" depart="245.96" departLane="best" departSpeed="max" from="469929210" to="-392180545#3"/>
    <trip id="veh229" type="veh_passenger" depart="247.04" departLane="best" from="-747964666" to="404178421#1"/>
    <trip id="veh230" type="veh_passenger" depart="248.12" departLane="best" from="-867910967" to="-469158248"/>
    <trip id="veh231" type="veh_passenger" depart="249.20" departLane="best" from="-867910972#0" to="745539604"/>
    <trip id="veh232" type="veh_passenger" depart="250.28" departLane="best" from="404178421#5" to="470605352#0"/>
    <trip id="veh233" type="veh_passenger" depart="251.35" departLane="best" from="553592343#3" to="542622638#0"/>
    <trip id="veh235" type="veh_passenger" depart="253.51" departLane="best" from="-553614801#5" to="542622632#4"/>
    <trip id="veh236" type="veh_passenger" depart="254.59" departLane="best" from="553592343#0" to="867910979#1"/>
    <trip id="veh237" type="veh_passenger" depart="255.67" departLane="best" from="-867910971#0" to="542622631#2"/>
    <trip id="veh238" type="veh_passenger" depart="256.75" departLane="best" from="392180545#4" to="469074096#4"/>
    <trip id="veh239" type="veh_passenger" depart="257.83" departLane="best" from="-469158238#1" to="-470298776#0"/>
    <trip id="veh240" type="veh_passenger" depart="258.91" departLane="best" from="-887410044#1" to="-208019153"/>
    <trip id="veh241" type="veh_passenger" depart="259.99" departLane="best" departSpeed="max" from="-553591193#2" to="469929216#0"/>
    <trip id="veh242" type="veh_passenger" depart="261.06" departLane="best" from="-746033034" to="-469124635#8"/>
    <trip id="veh244" type="veh_passenger" depart="263.22" departLane="best" from="469074071" to="-119010369#7"/>
    <trip id="veh245" type="veh_passenger" depart="264.30" departLane="best" from="-746033028" to="468783426"/>
    <trip id="veh246" type="veh_passenger" depart="265.38" departLane="best" departSpeed="max" from="-469004817" to="173556972"/>
    <trip id="veh247" type="veh_passenger" depart="266.46" departLane="best" from="-385977216#6" to="-887410043#0"/>
    <trip id="veh248" type="veh_passenger" depart="267.54" departLane="best" from="-469158228" to="-720844405"/>
    <trip id="veh250" type="veh_passenger" depart="269.69" departLane="best" from="480539971#1" to="553591188#1"/>
    <trip id="veh251" type="veh_passenger" depart="270.77" departLane="best" from="-471293180#0" to="-392180563#2"/>
    <trip id="veh252" type="veh_passenger" depart="271.85" departLane="best" departSpeed="max" from="-119010367#5" to="401441826#2"/>
    <trip id="veh253" type="veh_passenger" depart="272.93" departLane="best" from="949044361#1" to="-747964667"/>
    <trip id="veh254" type="veh_passenger" depart="274.01" departLane="best" from="469124635#2" to="542622646#5"/>
    <trip id="veh255" type="veh_passenger" depart="275.09" departLane="best" from="469124635#5" to="542622632#5"/>
    <trip id="veh256" type="veh_passenger" depart="276.17" departLane="best" from="867910978" to="-469158232#2"/>
    <trip id="veh257" type="veh_passenger" depart="277.25" departLane="best" departSpeed="max" from="-119010367#5" to="-469074096#2"/>
    <trip id="veh258" type="veh_passenger" depart="278.32" departLane="best" from="-468783435#3" to="469158243#4"/>
    <trip id="veh259" type="veh_passenger" depart="279.40" departLane="best" from="392180559#1" to="-469934362#3"/>
    <trip id="veh260" type="veh_passenger" depart="280.48" departLane="best" from="469580585" to="542622639#0"/>
    <trip id="veh261" type="veh_passenger" depart="281.56" departLane="best" from="480539967#1" to="-468783419"/>
    <trip id="veh263" type="veh_passenger" depart="283.72" departLane="best" from="-468783391#0" to="-119010369#6"/>
    <trip id="veh264" type="veh_passenger" depart="284.80" departLane="best" from="-542622641#0" to="469929212#0"/>
    <trip id="veh265" type="veh_passenger" depart="285.88" departLane="best" from="887410044#2" to="-889589489#0"/>
    <trip id="veh266" type="veh_passenger" depart="286.95" departLane="best" from="469934362#2" to="-392180559#0"/>
    <trip id="veh267" type="veh_passenger" depart="288.03" departLane="best" from="469158235" to="469158210#3"/>
    <trip id="veh268" type="veh_passenger" depart="289.11" departLane="best" from="-404178421#1" to="542622640#5"/>