<?xml version="1.0" encoding="UTF-8"?>
<!-- generated on 2022-05-11 22:07:21.775653 by osmWebWizard.py UNKNOWN
<configuration>
    <additional-files value="C:\Users\ths06\Desktop\2022-1\Reinforcement_Learning-Prof.Lee\Project\sumo\2022-05-11-22-06-49\osm_stops.add.xml,C:\Users\ths06\Desktop\2022-1\Reinforcement_Learning-Prof.Lee\Project\sumo\2022-05-11-22-06-49\osm_pt.rou.xml"/>
    <end value="1800"/>
    <net-file value="C:\Users\ths06\Desktop\2022-1\Reinforcement_Learning-Prof.Lee\Project\sumo\2022-05-11-22-06-49\osm.net.xml"/>
    <period value="5.078484450456491"/>
    <persontrips value="True"/>
    <route-file value="C:\Users\ths06\Desktop\2022-1\Reinforcement_Learning-Prof.Lee\Project\sumo\2022-05-11-22-06-49\osm.pedestrian.rou.xml"/>
    <trip-attributes value="modes=&quot;public&quot;"/>
    <output-trip-file value="C:\Users\ths06\Desktop\2022-1\Reinforcement_Learning-Prof.Lee\Project\sumo\2022-05-11-22-06-49\osm.pedestrian.trips.xml"/>
    <prefix value="ped"/>
    <vehicle-class value="pedestrian"/>
    <persontrip.walk-opposite-factor value="0.8"/>
</configuration>

-->
<routes xmlns:xsi="http://www.w3.org/2001/XMLSchema-instance" xsi:noNamespaceSchemaLocation="http://sumo.dlr.de/xsd/routes_file.xsd">
    <vType id="ped_pedestrian" vClass="pedestrian"/>
    <person id="ped0" depart="0.00" type="ped_pedestrian">
        <personTrip from="1037331691#2" to="-1009111690#0" modes="public"/>
    </person>
    <person id="ped1" depart="5.08" type="ped_pedestrian">
        <personTrip from="-949015151" to="-783529734#0" modes="public"/>
    </person>
    <person id="ped2" depart="10.16" type="ped_pedestrian">
        <personTrip from="886873226#2" to="469934904" modes="public"/>
    </person>
    <person id="ped3" depart="15.24" type="ped_pedestrian">
        <personTrip from="949044346#0" to="-1009111730#0" modes="public"/>
    </person>
    <person id="ped4" depart="20.31" type="ped_pedestrian">
        <personTrip from="1009111737#3" to="-1009111690#2" modes="public"/>
    </person>
    <person id="ped5" depart="25.39" type="ped_pedestrian">
        <personTrip from="-612344425#1" to="1037331657#2" modes="public"/>
    </person>
    <person id="ped6" depart="30.47" type="ped_pedestrian">
        <personTrip from="-1009111690#0" to="-1037331688#4" modes="public"/>
    </person>
    <person id="ped7" depart="35.55" type="ped_pedestrian">
        <personTrip from="1037331697" to="1037331667#3" modes="public"/>
    </person>
    <person id="ped8" depart="40.63" type="ped_pedestrian">
        <personTrip from="-612344426" to="1037331680#1" modes="public"/>
    </person>
    <person id="ped9" depart="45.71" type="ped_pedestrian">
        <personTrip from="949044315#6" to="-1009111686#3" modes="public"/>
    </person>
    <person id="ped10" depart="50.78" type="ped_pedestrian">
        <personTrip from="949044315#4" to="553591202#2" modes="public"/>
    </person>
    <person id="ped11" depart="55.86" type="ped_pedestrian">
        <personTrip from="1009111687#2" to="-1037331670#3" modes="public"/>
    </person>
    <person id="ped12" depart="60.94" type="ped_pedestrian">
        <personTrip from="949044365#6" to="1009111687#0" modes="public"/>
    </person>
    <person id="ped13" depart="66.02" type="ped_pedestrian">
        <personTrip from="-1009111737#1" to="-1009111737#3" modes="public"/>
    </person>
    <person id="ped14" depart="71.10" type="ped_pedestrian">
        <personTrip from="949044331#5" to="1037331683#1" modes="public"/>
    </person>
    <person id="ped15" depart="76.18" type="ped_pedestrian">
        <personTrip from="949044315#5" to="886873223#1" modes="public"/>
    </person>
    <person id="ped16" depart="81.26" type="ped_pedestrian">
        <personTrip from="1037331666" to="949044370#1" modes="public"/>
    </person>
    <person id="ped17" depart="86.33" type="ped_pedestrian">
        <personTrip from="1009111703#5" to="1037331669#0" modes="public"/>
    </person>
    <person id="ped18" depart="91.41" type="ped_pedestrian">
        <personTrip from="949044330#0" to="1037331687#3" modes="public"/>
    </person>
    <person id="ped19" depart="96.49" type="ped_pedestrian">
        <personTrip from="949044334#1" to="1037331672" modes="public"/>
    </person>
    <person id="ped20" depart="101.57" type="ped_pedestrian">
        <personTrip from="612344425#1" to="-1009111703#2" modes="public"/>
    </person>
    <person id="ped21" depart="106.65" type="ped_pedestrian">
        <personTrip from="-783529734#2" to="-949044315#3" modes="public"/>
    </person>
    <person id="ped22" depart="111.73" type="ped_pedestrian">
        <personTrip from="-1009111711#0" to="-783529734#5" modes="public"/>
    </person>
    <person id="ped23" depart="116.81" type="ped_pedestrian">
        <personTrip from="-1009111738#1" to="-949044314#0" modes="public"/>
    </person>
    <person id="ped24" depart="121.88" type="ped_pedestrian">
        <personTrip from="1037331691#0" to="1009111699#0" modes="public"/>
    </person>
    <person id="ped25" depart="126.96" type="ped_pedestrian">
        <personTrip from="1009111703#1" to="-1037331698#0" modes="public"/>
    </person>
    <person id="ped26" depart="132.04" type="ped_pedestrian">
        <personTrip from="-949015148#1" to="949044357#2" modes="public"/>
    </person>
    <person id="ped27" depart="137.12" type="ped_pedestrian">
        <personTrip from="1037331696#2" to="1037331684#1" modes="public"/>
    </person>
    <person id="ped28" depart="142.20" type="ped_pedestrian">
        <personTrip from="-1037331673#0" to="886873223#1" modes="public"/>
    </person>
    <person id="ped29" depart="147.28" type="ped_pedestrian">
        <personTrip from="-1037331670#8" to="1009111703#5" modes="public"/>
    </person>
    <person id="ped30" depart="152.35" type="ped_pedestrian">
        <personTrip from="949044372#5" to="1037331691#2" modes="public"/>
    </person>
    <person id="ped31" depart="157.43" type="ped_pedestrian">
        <personTrip from="1037331670#0" to="542622658#0" modes="public"/>
    </person>
    <person id="ped32" depart="162.51" type="ped_pedestrian">
        <personTrip from="949044331#3" to="949015147#2" modes="public"/>
    </person>
    <person id="ped33" depart="167.59" type="ped_pedestrian">
        <personTrip from="-783529734#3" to="-1009111691#0" modes="public"/>
    </person>
    <person id="ped34" depart="172.67" type="ped_pedestrian">
        <personTrip from="-949044357#1" to="-949015149" modes="public"/>
    </person>
    <person id="ped35" depart="177.75" type="ped_pedestrian">
        <personTrip from="-1037331698#1" to="949044357#5" modes="public"/>
    </person>
    <person id="ped36" depart="182.83" type="ped_pedestrian">
        <personTrip from="949044342#0" to="-949044357#0" modes="public"/>
    </person>
    <person id="ped37" depart="187.90" type="ped_pedestrian">
        <personTrip from="1037331698#1" to="1009111708#1" modes="public"/>
    </person>
    <person id="ped38" depart="192.98" type="ped_pedestrian">
        <personTrip from="949044350#1" to="1030287040#0" modes="public"/>
    </person>
    <person id="ped39" depart="198.06" type="ped_pedestrian">
        <personTrip from="-949015148#0" to="-886873226#1" modes="public"/>
    </person>
    <person id="ped40" depart="203.14" type="ped_pedestrian">
        <personTrip from="1037331670#10" to="-949015147#2" modes="public"/>
    </person>
    <person id="ped41" depart="208.22" type="ped_pedestrian">
        <personTrip from="1037331674#0" to="949044347#0" modes="public"/>
    </person>
    <person id="ped42" depart="213.30" type="ped_pedestrian">
        <personTrip from="1009111709#1" to="-612344425#1" modes="public"/>
    </person>
    <person id="ped43" depart="218.37" type="ped_pedestrian">
        <personTrip from="949044374#1" to="1037331657#4" modes="public"/>
    </person>
    <person id="ped44" depart="223.45" type="ped_pedestrian">
        <personTrip from="-1009111737#0" to="-1009111703#2" modes="public"/>
    </person>
    <person id="ped45" depart="228.53" type="ped_pedestrian">
        <personTrip from="-1009111740" to="1037331688#2" modes="public"/>
    </person>
    <person id="ped46" depart="233.61" type="ped_pedestrian">
        <personTrip from="949044314#0" to="1009111737#3" modes="public"/>
    </person>
    <person id="ped47" depart="238.69" type="ped_pedestrian">
        <personTrip from="-1009111707#1" to="1009111706#0" modes="public"/>
    </person>
    <person id="ped48" depart="243.77" type="ped_pedestrian">
        <personTrip from="949044374#1" to="1037331659#4" modes="public"/>
    </person>
    <person id="ped49" depart="248.85" type="ped_pedestrian">
        <personTrip from="949044370#0" to="949044334#0" modes="public"/>
    </person>
    <person id="ped50" depart="253.92" type="ped_pedestrian">
        <personTrip from="-1009111687#0" to="886096266#0" modes="public"/>
    </person>
    <person id="ped51" depart="259.00" type="ped_pedestrian">
        <personTrip from="542622656#1" to="1037331666" modes="public"/>
    </person>
    <person id="ped52" depart="264.08" type="ped_pedestrian">
        <personTrip from="-949015148#1" to="1037331691#2" modes="public"/>
    </person>
    <person id="ped53" depart="269.16" type="ped_pedestrian">
        <personTrip from="-1037331657#0" to="1009111743" modes="public"/>
    </person>
    <person id="ped54" depart="274.24" type="ped_pedestrian">
        <personTrip from="1030287037" to="949044365#4" modes="public"/>
    </person>
    <person id="ped55" depart="279.32" type="ped_pedestrian">
        <personTrip from="949044342#0" to="-949015147#2" modes="public"/>
    </person>
    <person id="ped56" depart="284.40" type="ped_pedestrian">
        <personTrip from="1037331657#0" to="-1037331687#0" modes="public"/>
    </person>
    <person id="ped57" depart="289.47" type="ped_pedestrian">
        <personTrip from="949044349" to="949044337#1" modes="public"/>
    </person>
    <person id="ped58" depart="294.55" type="ped_pedestrian">
        <personTrip from="-949044316#0" to="1037331691#1" modes="public"/>
    </person>
    <person id="ped59" depart="299.63" type="ped_pedestrian">
        <personTrip from="1037331684#1" to="-1037331670#10" modes="public"/>
    </person>
    <person id="ped60" depart="304.71" type="ped_pedestrian">
        <personTrip from="949015140#2" to="1037331667#0" modes="public"/>
    </person>
    <person id="ped61" depart="309.79" type="ped_pedestrian">
        <personTrip from="949015148#0" to="1037331659#4" modes="public"/>
    </person>
    <person id="ped62" depart="314.87" type="ped_pedestrian">
        <personTrip from="-1009111686#0" to="-991679424" modes="public"/>
    </person>
    <person id="ped63" depart="319.94" type="ped_pedestrian">
        <personTrip from="-1009111689#0" to="949044352" modes="public"/>
    </person>
    <person id="ped64" depart="325.02" type="ped_pedestrian">
        <personTrip from="949044342#1" to="949044330#1" modes="public"/>
    </person>
    <person id="ped65" depart="330.10" type="ped_pedestrian">
        <personTrip from="-949044319#1" to="-1009111706#1" modes="public"/>
    </person>
    <person id="ped66" depart="335.18" type="ped_pedestrian">
        <personTrip from="949044342#1" to="949044365#1" modes="public"/>
    </person>
    <person id="ped67" depart="340.26" type="ped_pedestrian">
        <personTrip from="-1009111730#0" to="1030287043#4" modes="public"/>
    </person>
    <person id="ped68" depart="345.34" type="ped_pedestrian">
        <personTrip from="-1009111708#1" to="949015140#1" modes="public"/>
    </person>
    <person id="ped69" depart="350.42" type="ped_pedestrian">
        <personTrip from="949015142" to="-1037331657#8" modes="public"/>
    </person>
    <person id="ped70" depart="355.49" type="ped_pedestrian">
        <personTrip from="1030287042" to="1037331668#1" modes="public"/>
    </person>
    <person id="ped71" depart="360.57" type="ped_pedestrian">
        <personTrip from="-949015148#0" to="949044338#0" modes="public"/>
    </person>
    <person id="ped72" depart="365.65" type="ped_pedestrian">
        <personTrip from="1009111737#3" to="-1037331699" modes="public"/>
    </person>
    <person id="ped73" depart="370.73" type="ped_pedestrian">
        <personTrip from="1037331667#0" to="886873223#1" modes="public"/>
    </person>
    <person id="ped74" depart="375.81" type="ped_pedestrian">
        <personTrip from="-1037331696#0" to="-949044320" modes="public"/>
    </person>
    <person id="ped75" depart="380.89" type="ped_pedestrian">
        <personTrip from="949044374#0" to="1037331697" modes="public"/>
    </person>
    <person id="ped76" depart="385.96" type="ped_pedestrian">
        <personTrip from="1030287034#1" to="1037331657#8" modes="public"/>
    </person>
    <person id="ped77" depart="391.04" type="ped_pedestrian">
        <personTrip from="-1037331657#5" to="-783529734#1" modes="public"/>
    </person>
    <person id="ped78" depart="396.12" type="ped_pedestrian">
        <personTrip from="1009111687#0" to="1037331680#0" modes="public"/>
    </person>
    <person id="ped79" depart="401.20" type="ped_pedestrian">
        <personTrip from="-783529734#3" to="-612344426" modes="public"/>
    </person>
    <person id="ped80" depart="406.28" type="ped_pedestrian">
        <personTrip from="-1009111709#0" to="1037331688#4" modes="public"/>
    </person>
    <person id="ped81" depart="411.36" type="ped_pedestrian">
        <personTrip from="-783529734#3" to="949044348#3" modes="public"/>
    </person>
    <person id="ped82" depart="416.44" type="ped_pedestrian">
        <personTrip from="949044334#0" to="-1009111709#0" modes="public"/>
    </person>
    <person id="ped83" depart="421.51" type="ped_pedestrian">
        <personTrip from="-886374227" to="469929203#0" modes="public"/>
    </person>
    <person id="ped84" depart="426.59" type="ped_pedestrian">
        <personTrip from="-208019132#0" to="-1037331659#0" modes="public"/>
    </person>
    <person id="ped85" depart="431.67" type="ped_pedestrian">
        <personTrip from="949044357#1" to="1037331670#8" modes="public"/>
    </person>
    <person id="ped86" depart="436.75" type="ped_pedestrian">
        <personTrip from="1030287041#2" to="949015150#0" modes="public"/>
    </person>
    <person id="ped87" depart="441.83" type="ped_pedestrian">
        <personTrip from="949044315#5" to="-1037331688#0" modes="public"/>
    </person>
    <person id="ped88" depart="446.91" type="ped_pedestrian">
        <personTrip from="-1009111737#3" to="1009111739#0" modes="public"/>
    </person>
    <person id="ped89" depart="451.99" type="ped_pedestrian">
        <personTrip from="1009111738#0" to="1030287041#0" modes="public"/>
    </person>
    <person id="ped90" depart="457.06" type="ped_pedestrian">
        <personTrip from="886873223#1" to="469929204" modes="public"/>
    </person>
    <person id="ped91" depart="462.14" type="ped_pedestrian">
        <personTrip from="949044372#3" to="-1009111738#0" modes="public"/>
    </person>
    <person id="ped92" depart="467.22" type="ped_pedestrian">
        <personTrip from="1009111710#1" to="1009111687#1" modes="public"/>
    </person>
    <person id="ped93" depart="472.30" type="ped_pedestrian">
        <personTrip from="949044334#1" to="-886873226#2" modes="public"/>
    </person>
    <person id="ped94" depart="477.38" type="ped_pedestrian">
        <personTrip from="-1037331688#0" to="1030287035#1" modes="public"/>
    </person>
    <person id="ped95" depart="482.46" type="ped_pedestrian">
        <personTrip from="1009111737#3" to="-949044314#1" modes="public"/>
    </person>
    <person id="ped96" depart="487.53" type="ped_pedestrian">
        <personTrip from="-886887084" to="949044351#0" modes="public"/>
    </person>
    <person id="ped97" depart="492.61" type="ped_pedestrian">
        <personTrip from="1030287034#3" to="949044334#1" modes="public"/>
    </person>
    <person id="ped98" depart="497.69" type="ped_pedestrian">
        <personTrip from="1037331668#1" to="-1009111703#4" modes="public"/>
    </person>
    <person id="ped99" depart="502.77" type="ped_pedestrian">
        <personTrip from="991679424" to="949044330#3" modes="public"/>
    </person>
    <person id="ped100" depart="507.85" type="ped_pedestrian">
        <personTrip from="949044369#4" to="949044351#1" modes="public"/>
    </person>
    <person id="ped101" depart="512.93" type="ped_pedestrian">
        <personTrip from="949044331#6" to="-1037331671" modes="public"/>
    </person>
    <person id="ped102" depart="518.01" type="ped_pedestrian">
        <personTrip from="1030287043#4" to="-208019132#0" modes="public"/>
    </person>
    <person id="ped103" depart="523.08" type="ped_pedestrian">
        <personTrip from="1009111710#0" to="-1009111706#2" modes="public"/>
    </person>
    <person id="ped104" depart="528.16" type="ped_pedestrian">
        <personTrip from="1009111703#5" to="949044372#3" modes="public"/>
    </person>
    <person id="ped105" depart="533.24" type="ped_pedestrian">
        <personTrip from="-949015148#0" to="949015149" modes="public"/>
    </person>
    <person id="ped106" depart="538.32" type="ped_pedestrian">
        <personTrip from="1030287038" to="1009111737#3" modes="public"/>
    </person>
    <person id="ped107" depart="543.40" type="ped_pedestrian">
        <personTrip from="949044365#6" to="949044374#0" modes="public"/>
    </person>
    <person id="ped108" depart="548.48" type="ped_pedestrian">
        <personTrip from="1037331669#1" to="783529734#6" modes="public"/>
    </person>
    <person id="ped109" depart="553.55" type="ped_pedestrian">
        <personTrip from="-1037331670#3" to="-949044316#0" modes="public"/>
    </person>
    <person id="ped110" depart="558.63" type="ped_pedestrian">
        <personTrip from="949044369#3" to="1037331673#0" modes="public"/>
    </person>
    <person id="ped111" depart="563.71" type="ped_pedestrian">
        <personTrip from="1037331667#2" to="949015137#0" modes="public"/>
    </person>
    <person id="ped112" depart="568.79" type="ped_pedestrian">
        <personTrip from="-1009111706#1" to="1037331674#0" modes="public"/>
    </person>
    <person id="ped113" depart="573.87" type="ped_pedestrian">
        <personTrip from="1037331657#1" to="949044332" modes="public"/>
    </person>
    <person id="ped114" depart="578.95" type="ped_pedestrian">
        <personTrip from="-1037331670#4" to="949044366#1" modes="public"/>
    </person>
    <person id="ped115" depart="584.03" type="ped_pedestrian">
        <personTrip from="-1009111711#0" to="-1037331687#3" modes="public"/>
    </person>
    <person id="ped116" depart="589.10" type="ped_pedestrian">
        <personTrip from="1037331681" to="469930041" modes="public"/>
    </person>
    <person id="ped117" depart="594.18" type="ped_pedestrian">
        <personTrip from="-783529734#6" to="-1037331657#4" modes="public"/>
    </person>
    <person id="ped118" depart="599.26" type="ped_pedestrian">
        <personTrip from="949044345#1" to="-886873226#1" modes="public"/>
    </person>
    <person id="ped119" depart="604.34" type="ped_pedestrian">
        <personTrip from="1037331681" to="1037331687#3" modes="public"/>
    </person>
    <person id="ped120" depart="609.42" type="ped_pedestrian">
        <personTrip from="1009111737#2" to="1037331674#0" modes="public"/>
    </person>
    <person id="ped121" depart="614.50" type="ped_pedestrian">
        <personTrip from="1037331659#0" to="949044357#1" modes="public"/>
    </person>
    <person id="ped122" depart="619.58" type="ped_pedestrian">
        <personTrip from="-1037331696#2" to="783529734#5" modes="public"/>
    </person>
    <person id="ped123" depart="624.65" type="ped_pedestrian">
        <personTrip from="-886873223#0" to="1009111708#1" modes="public"/>
    </person>
    <person id="ped124" depart="629.73" type="ped_pedestrian">
        <personTrip from="469929203#1" to="-949044316#1" modes="public"/>
    </person>
    <person id="ped125" depart="634.81" type="ped_pedestrian">
        <personTrip from="-949044357#1" to="949015138#0" modes="public"/>
    </person>
    <person id="ped126" depart="639.89" type="ped_pedestrian">
        <personTrip from="-1009111709#0" to="1030287039" modes="public"/>
    </person>
    <person id="ped127" depart="644.97" type="ped_pedestrian">
        <personTrip from="991679424" to="949044374#1" modes="public"/>
    </person>
    <person id="ped128" depart="650.05" type="ped_pedestrian">
        <personTrip from="-1009111709#1" to="-1037331699" modes="public"/>
    </person>
    <person id="ped129" depart="655.12" type="ped_pedestrian">
        <personTrip from="-949015148#0" to="949044354" modes="public"/>
    </person>
    <person id="ped130" depart="660.20" type="ped_pedestrian">
        <personTrip from="949044342#2" to="949044342#1" modes="public"/>
    </person>
    <person id="ped131" depart="665.28" type="ped_pedestrian">
        <personTrip from="1009111703#1" to="-1037331670#5" modes="public"/>
    </person>
    <person id="ped132" depart="670.36" type="ped_pedestrian">
        <personTrip from="949044330#2" to="612344425#1" modes="public"/>
    </person>
    <person id="ped133" depart="675.44" type="ped_pedestrian">
        <personTrip from="1037331685" to="949044372#4" modes="public"/>
    </person>
    <person id="ped134" depart="680.52" type="ped_pedestrian">
        <personTrip from="1037331698#1" to="-1009111686#3" modes="public"/>
    </person>
    <person id="ped135" depart="685.60" type="ped_pedestrian">
        <personTrip from="949044317#0" to="-949044316#1" modes="public"/>
    </person>
    <person id="ped136" depart="690.67" type="ped_pedestrian">
        <personTrip from="404178422#0" to="949044357#3" modes="public"/>
    </person>
    <person id="ped137" depart="695.75" type="ped_pedestrian">
        <personTrip from="-1037331659#1" to="-1037331657#2" modes="public"/>
    </person>
    <person id="ped138" depart="700.83" type="ped_pedestrian">
        <personTrip from="-1009111739#1" to="1037331669#0" modes="public"/>
    </person>
    <person id="ped139" depart="705.91" type="ped_pedestrian">
        <personTrip from="-949015150#1" to="1037331683#2" modes="public"/>
    </person>
    <person id="ped140" depart="710.99" type="ped_pedestrian">
        <personTrip from="783529734#5" to="-1037331696#2" modes="public"/>
    </person>
    <person id="ped141" depart="716.07" type="ped_pedestrian">
        <personTrip from="1037331690" to="-949015148#0" modes="public"/>
    </person>
    <person id="ped142" depart="721.14" type="ped_pedestrian">
        <personTrip from="1030287044#0" to="949044348#3" modes="public"/>
    </person>
    <person id="ped143" depart="726.22" type="ped_pedestrian">
        <personTrip from="949044331#4" to="-1009111737#1" modes="public"/>
    </person>
    <person id="ped144" depart="731.30" type="ped_pedestrian">
        <personTrip from="1009111738#0" to="-949044314#0" modes="public"/>
    </person>
    <person id="ped145" depart="736.38" type="ped_pedestrian">
        <personTrip from="-1009111686#1" to="949015144" modes="public"/>
    </person>
    <person id="ped146" depart="741.46" type="ped_pedestrian">
        <personTrip from="1037331691#1" to="-949015147#2" modes="public"/>
    </person>
    <person id="ped147" depart="746.54" type="ped_pedestrian">
        <personTrip from="887409089" to="1037331668#1" modes="public"/>
    </person>
    <person id="ped148" depart="751.62" type="ped_pedestrian">
        <personTrip from="1009111738#2" to="-1009111686#4" modes="public"/>
    </person>
    <person id="ped149" depart="756.69" type="ped_pedestrian">
        <personTrip from="-1009111710#0" to="949044342#3" modes="public"/>
    </person>
    <person id="ped150" depart="761.77" type="ped_pedestrian">
        <personTrip from="949044348#2" to="1037331667#3" modes="public"/>
    </person>
    <person id="ped151" depart="766.85" type="ped_pedestrian">
        <personTrip from="949044330#3" to="1037331673#1" modes="public"/>
    </person>
    <person id="ped152" depart="771.93" type="ped_pedestrian">
        <personTrip from="-1037331670#0" to="-1037331657#8" modes="public"/>
    </person>
    <person id="ped153" depart="777.01" type="ped_pedestrian">
        <personTrip from="-949044319#1" to="949044347#1" modes="public"/>
    </person>
    <person id="ped154" depart="782.09" type="ped_pedestrian">
        <personTrip from="949044314#2" to="949044334#0" modes="public"/>
    </person>
    <person id="ped155" depart="787.17" type="ped_pedestrian">
        <personTrip from="949044347#1" to="-1037331698#1" modes="public"/>
    </person>
    <person id="ped156" depart="792.24" type="ped_pedestrian">
        <personTrip from="-886887084" to="-1009111738#2" modes="public"/>
    </person>
    <person id="ped157" depart="797.32" type="ped_pedestrian">
        <personTrip from="949015148#1" to="949044344#0" modes="public"/>
    </person>
    <person id="ped158" depart="802.40" type="ped_pedestrian">
        <personTrip from="1009111711#0" to="1037331687#4" modes="public"/>
    </person>
    <person id="ped159" depart="807.48" type="ped_pedestrian">
        <personTrip from="-1037331670#3" to="949044353" modes="public"/>
    </person>
    <person id="ped160" depart="812.56" type="ped_pedestrian">
        <personTrip from="949044335#1" to="949044371" modes="public"/>
    </person>
    <person id="ped161" depart="817.64" type="ped_pedestrian">
        <personTrip from="949044315#6" to="949044342#2" modes="public"/>
    </person>
    <person id="ped162" depart="822.71" type="ped_pedestrian">
        <personTrip from="-1009111689#2" to="886887084" modes="public"/>
    </person>
    <person id="ped163" depart="827.79" type="ped_pedestrian">
        <personTrip from="1009111686#3" to="949044353" modes="public"/>
    </person>
    <person id="ped164" depart="832.87" type="ped_pedestrian">
        <personTrip from="949044315#2" to="949044335#1" modes="public"/>
    </person>
    <person id="ped165" depart="837.95" type="ped_pedestrian">
        <personTrip from="949044315#6" to="-949015148#1" modes="public"/>
    </person>
    <person id="ped166" depart="843.03" type="ped_pedestrian">
        <personTrip from="949015150#1" to="-1009111740" modes="public"/>
    </person>
    <person id="ped167" depart="848.11" type="ped_pedestrian">
        <personTrip from="949044338#0" to="949044333#1" modes="public"/>
    </person>
    <person id="ped168" depart="853.19" type="ped_pedestrian">
        <personTrip from="-783529734#0" to="949044317#0" modes="public"/>
    </person>
    <person id="ped169" depart="858.26" type="ped_pedestrian">
        <personTrip from="1030287040#0" to="-949044319#0" modes="public"/>
    </person>
    <person id="ped170" depart="863.34" type="ped_pedestrian">
        <personTrip from="949044314#2" to="-783529734#2" modes="public"/>
    </person>
    <person id="ped171" depart="868.42" type="ped_pedestrian">
        <personTrip from="-1009111689#2" to="-1037331688#2" modes="public"/>
    </person>
    <person id="ped172" depart="873.50" type="ped_pedestrian">
        <personTrip from="1009111686#1" to="949044335#1" modes="public"/>
    </person>
    <person id="ped173" depart="878.58" type="ped_pedestrian">
        <personTrip from="949044369#3" to="-949044314#1" modes="public"/>
    </person>
    <person id="ped174" depart="883.66" type="ped_pedestrian">
        <personTrip from="1037331692" to="1009111709#1" modes="public"/>
    </person>
    <person id="ped175" depart="888.73" type="ped_pedestrian">
        <personTrip from="949044372#1" to="1037331666" modes="public"/>
    </person>
    <person id="ped176" depart="893.81" type="ped_pedestrian">
        <personTrip from="949044357#3" to="-1037331657#2" modes="public"/>
    </person>
    <person id="ped177" depart="898.89" type="ped_pedestrian">
        <personTrip from="949044369#4" to="-1037331687#0" modes="public"/>
    </person>
    <person id="ped178" depart="903.97" type="ped_pedestrian">
        <personTrip from="949044366#1" to="-949015148#0" modes="public"/>
    </person>
    <person id="ped179" depart="909.05" type="ped_pedestrian">
        <personTrip from="-1009111740" to="1009111743" modes="public"/>
    </person>
    <person id="ped180" depart="914.13" type="ped_pedestrian">
        <personTrip from="886873223#1" to="-949044357#0" modes="public"/>
    </person>
    <person id="ped181" depart="919.21" type="ped_pedestrian">
        <personTrip from="1037331684#0" to="1037331657#5" modes="public"/>
    </person>
    <person id="ped182" depart="924.28" type="ped_pedestrian">
        <personTrip from="1009111706#2" to="1037331671" modes="public"/>
    </person>
    <person id="ped183" depart="929.36" type="ped_pedestrian">
        <personTrip from="-949015137#0" to="783529734#1" modes="public"/>
    </person>
    <person id="ped184" depart="934.44" type="ped_pedestrian">
        <personTrip from="-1009111686#0" to="949044351#1" modes="public"/>
    </person>
    <person id="ped185" depart="939.52" type="ped_pedestrian">
        <personTrip from="1037331667#0" to="783529734#6" modes="public"/>
    </person>
    <person id="ped186" depart="944.60" type="ped_pedestrian">
        <personTrip from="887409089" to="469929203#1" modes="public"/>
    </person>
    <person id="ped187" depart="949.68" type="ped_pedestrian">
        <personTrip from="1009111699#0" to="-1009111708#1" modes="public"/>
    </person>
    <person id="ped188" depart="954.76" type="ped_pedestrian">
        <personTrip from="404178422#1" to="1009111686#2" modes="public"/>
    </person>
    <person id="ped189" depart="959.83" type="ped_pedestrian">
        <personTrip from="-949044357#0" to="949044331#5" modes="public"/>
    </person>
    <person id="ped190" depart="964.91" type="ped_pedestrian">