<?xml version="1.0" encoding="UTF-8"?>

<!-- generated on 2022-05-11 22:07:16 by Eclipse SUMO duarouter Version 1.13.0
<configuration xmlns:xsi="http://www.w3.org/2001/XMLSchema-instance" xsi:noNamespaceSchemaLocation="http://sumo.dlr.de/xsd/duarouterConfiguration.xsd">

    <input>
        <net-file value="C:\Users\ths06\Desktop\2022-1\Reinforcement_Learning-Prof.Lee\Project\sumo\2022-05-11-22-06-49\osm.net.xml"/>
        <route-files value="C:\Users\ths06\Desktop\2022-1\Reinforcement_Learning-Prof.Lee\Project\sumo\2022-05-11-22-06-49\osm.bus.trips.xml"/>
    </input>

    <output>
        <output-file value="C:\Users\ths06\Desktop\2022-1\Reinforcement_Learning-Prof.Lee\Project\sumo\2022-05-11-22-06-49\osm.bus.trips.xml.tmp"/>
        <write-trips value="true"/>
    </output>

    <time>
        <begin value="0"/>
        <end value="1800"/>
    </time>

    <report>
        <no-warnings value="true"/>
        <ignore-errors value="true"/>
        <no-step-log value="true"/>
    </report>

</configuration>
-->

<routes xmlns:xsi="http://www.w3.org/2001/XMLSchema-instance" xsi:noNamespaceSchemaLocation="http://sumo.dlr.de/xsd/routes_file.xsd">
    <vType id="bus_bus" vClass="bus"/>
    <trip id="bus0" type="bus_bus" depart="0.00" departLane="best" from="469074076#1" to="-330084819#3"/>
    <trip id="bus1" type="bus_bus" depart="3.24" departLane="best" departSpeed="max" from="-471724762" to="-469934362#4"/>
    <trip id="bus2" type="bus_bus" depart="6.47" departLane="best" from="470298776#0" to="469158237"/>
    <trip id="bus3" type="bus_bus" depart="9.71" departLane="best" from="606026174#0" to="-401441828"/>
    <trip id="bus4" type="bus_bus" depart="12.95" departLane="best" departSpeed="max" from="469074090" to="401441826#1"/>
    <trip id="bus5" type="bus_bus" depart="16.18" departLane="best" from="-469158232#2" to="469004845#2"/>
    <trip id="bus7" type="bus_bus" depart="22.65" departLane="best" from="542622644#0" to="469929466#1"/>
    <trip id="bus8" type="bus_bus" depart="25.89" departLane="best" from="-542622653#0" to="-469124633#0"/>
    <trip id="bus9" type="bus_bus" depart="29.13" departLane="best" from="-392180570" to="-468783398"/>
    <trip id="bus10" type="bus_bus" depart="32.36" departLane="best" from="553591196#1" to="469074087#1"/>
    <trip id="bus11" type="bus_bus" depart="35.60" departLane="best" from="542622645#0" to="471724762"/>
    <trip id="bus12" type="bus_bus" depart="38.84" departLane="best" from="37398225#5" to="889589487#1"/>
    <trip id="bus13" type="bus_bus" depart="42.07" departLane="best" from="-553615628#3" to="404178425"/>
    <trip id="bus14" type="bus_bus" depart="45.31" departLane="best" from="553591140" to="469074098"/>
    <trip id="bus15" type="bus_bus" depart="48.54" departLane="best" from="553614798#1" to="468783435#2"/>
    <trip id="bus16" type="bus_bus" depart="51.78" departLane="best" from="469158230#0" to="-392047450#0"/>
    <trip id="bus17" type="bus_bus" depart="55.02" departLane="best" departSpeed="max" from="-469158241" to="-542622648"/>
    <trip id="bus18" type="bus_bus" depart="58.25" departLane="best" from="-418087791" to="-542622640#2"/>
    <trip id="bus19" type="bus_bus" depart="61.49" departLane="best" from="469074067#1" to="-747964666"/>
    <trip id="bus20" type="bus_bus" depart="64.73" departLane="best" from="-553614804#0" to="-469158242"/>
    <trip id="bus21" type="bus_bus" depart="67.96" departLane="best" departSpeed="max" from="-471720027" to="801000833"/>
    <trip id="bus22" type="bus_bus" depart="71.20" departLane="best" from="-469124634#0" to="471721996"/>
    <trip id="bus23" type="bus_bus" depart="74.44" departLane="best" departSpeed="max" from="-469074096#4" to="-867910972#5"/>
    <trip id="bus24" type="bus_bus" depart="77.67" departLane="best" departSpeed="max" from="948982099" to="469158210#3"/>
    <trip id="bus26" type="bus_bus" depart="84.14" departLane="best" departSpeed="max" from="-542622637" to="-542622631#9"/>
    <trip id="bus27" type="bus_bus" depart="87.38" departLane="best" from="-469158222" to="867910972#1"/>
    <trip id="bus28" type="bus_bus" depart="90.62" departLane="best" from="553614806#0" to="-553614801#3"/>
    <trip id="bus30" type="bus_bus" depart="97.09" departLane="best" from="-471719156#1" to="-476021740#0"/>
    <trip id="bus31" type="bus_bus" depart="100.33" departLane="best" from="392180547#7" to="-542622631#1"/>
    <trip id="bus32" type="bus_bus" depart="103.56" departLane="best" from="392180567#0" to="745539600#0"/>
    <trip id="bus33" type="bus_bus" depart="106.80" departLane="best" from="-745539601#1" to="-469929467#1"/>
    <trip id="bus34" type="bus_bus" depart="110.04" departLane="best" departSpeed="max" from="949044343" to="392180548#0"/>
    <trip id="bus35" type="bus_bus" depart="113.27" departLane="best" from="-468783406#2" to="469124635#5"/>
    <trip id="bus36" type="bus_bus" depart="116.51" departLane="best" from="542622632#1" to="-942801979#0"/>
    <trip id="bus37" type="bus_bus" depart="119.74" departLane="best" departSpeed="max" from="949044343" to="392180561#3"/>
    <trip id="bus38" type="bus_bus" depart="122.98" departLane="best" from="889589487#3" to="553614800#3"/>
    <trip id="bus39" type="bus_bus" depart="126.22" departLane="best" from="-119010367#1" to="471719156#2"/>
    <trip id="bus40" type="bus_bus" depart="129.45" departLane="best" from="469158210#3" to="392180566#1"/>
    <trip id="bus41" type="bus_bus" depart="132.69" departLane="best" from="-471720026" to="469158210#4"/>
    <trip id="bus43" type="bus_bus" depart="139.16" departLane="best" from="553614805#2" to="-542622631#2"/>
    <trip id="bus44" type="bus_bus" depart="142.40" departLane="best" from="119001261#0" to="-469158210#8"/>
    <trip id="bus45" type="bus_bus" depart="145.63" departLane="best" from="746033024" to="553614805#2"/>
    <trip id="bus46" type="bus_bus" depart="148.87" departLane="best" from="-480539971#1" to="469158210#10"/>
    <trip id="bus47" type="bus_bus" depart="152.11" departLane="best" from="468783411#3" to="-469074099#2"/>
    <trip id="bus48" type="bus_bus" depart="155.34" departLane="best" from="476243098#0" to="392180567#1"/>
    <trip id="bus50" type="bus_bus" depart="161.82" departLane="best" from="-1030345537" to="-553615628#5"/>
    <trip id="bus51" type="bus_bus" depart="165.05" departLane="best" from="-119010369#5" to="747964667"/>
    <trip id="bus52" type="bus_bus" depart="168.29" departLane="best" from="553615627" to="553591178#7"/>
    <trip id="bus53" type="bus_bus" depart="171.53" departLane="best" from="-542622632#5" to="-392180545#9"/>
    <trip id="bus54" type="bus_bus" depart="174.76" departLane="best" from="553614806#2" to="867910973#4"/>
    <trip id="bus55" type="bus_bus" depart="178.00" departLane="best" from="-392180566#1" to="385977216#5"/>
    <trip id="bus57" type="bus_bus" depart="184.47" departLane="best" from="477948309#3" to="-469004845#1"/>
    <trip id="bus58" type="bus_bus" depart="187.71" departLane="best" from="-889589490#0" to="404178421#3"/>
    <trip id="bus59" type="bus_bus" depart="190.94" departLane="best" from="-471719156#1" to="553614809#0"/>
    <trip id="bus60" type="bus_bus" depart="194.18" departLane="best" from="-746033032#3" to="-469929207#0"/>
    <trip id="bus61" type="bus_bus" depart="197.42" departLane="best" from="385977216#1" to="471724762"/>
    <trip id="bus62" type="bus_bus" depart="200.65" departLane="best" from="-469158217" to="-553614800#4"/>
    <trip id="bus63" type="bus_bus" depart="203.89" departLane="best" from="949044326#4" to="469158215#2"/>
    <trip id="bus64" type="bus_bus" depart="207.13" departLane="best" from="-867910968#0" to="392180553#2"/>
    <trip id="bus65" type="bus_bus" depart="210.36" departLane="best" from="-542622651#3" to="469004845#1"/>
    <trip id="bus66" type="bus_bus" depart="213.60" departLane="best" departSpeed="max" from="-469158241" to="-469929500"/>
    <trip id="bus67" type="bus_bus" depart="216.83" departLane="best" from="-392180555#1" to="469158201#1"/>
    <trip id="bus68" type="bus_bus" depart="220.07" departLane="best" departSpeed="max" from="-469158241" to="745539606#0"/>
    <trip id="bus69" type="bus_bus" depart="223.31" departLane="best" from="553614797#4" to="-392180561#1"/>
    <trip id="bus70" type="bus_bus" depart="226.54" departLane="best" from="-469929212#1" to="469158230#0"/>
    <trip id="bus71" type="bus_bus" depart="229.78" departLane="best" from="867910971#1" to="468783424#0"/>
    <trip id="bus72" type="bus_bus" depart="233.02" departLane="best" from="-889589488#0" to="542622639#1"/>
    <trip id="bus73" type="bus_bus" depart="236.25" departLane="best" from="542622645#1" to="-469158221#2"/>
    <trip id="bus74" type="bus_bus" depart="239.49" departLane="best" from="-404178421#0" to="-949044313#2"/>
    <trip id="bus75" type="bus_bus" depart="242.72" departLane="best" from="469929216#2" to="469158232#3"/>
    <trip id="bus76" type="bus_bus" depart="245.96" departLane="best" from="942801979#0" to="-468783404#2"/>
    <trip id="bus77" type="bus_bus" depart="249.20" departLane="best" from="-745539605#0" to="-720844404#1"/>
    <trip id="bus78" type="bus_bus" depart="252.43" departLane="best" from="553614798#1" to="-476021743"/>
    <trip id="bus79" type="bus_bus" depart="255.67" departLane="best" from="-469158210#6" to="119010367#5"/>
    <trip id="bus80" type="bus_bus" depart="258.91" departLane="best" from="-746033032#1" to="-542622640#3"/>
    <trip id="bus81" type="bus_bus" depart="262.14" departLane="best" from="-470298776#2" to="746033032#3"/>
    <trip id="bus82" type="bus_bus" depart="265.38" departLane="best" from="-867910972#1" to="553614800#4"/>
    <trip id="bus83" type="bus_bus" depart="268.62" departLane="best" from="392180545#0" to="-392180251#2"/>
    <trip id="bus84" type="bus_bus" depart="271.85" departLane="best" from="949044355#1" to="553591190#2"/>
    <trip id="bus85" type="bus_bus" depart="275.09" departLane="best" from="889589486#9" to="747964661"/>
    <trip id="bus86" type="bus_bus" depart="278.32" departLane="best" from="553591196#3" to="-469158201#1"/>
    <trip id="bus87" type="bus_bus" depart="281.56" departLane="best" from="-948982084#1" to="-469929212#2"/>
    <trip id="bus88" type="bus_bus" depart="284.80" departLane="best" from="-745539602#1" to="-392180548#0"/>
    <trip id="bus89" type="bus_bus" depart="288.03" departLane="best" from="-471719156#2" to="542622639#0"/>
    <trip id="bus90" type="bus_bus" depart="291.27" departLane="best" from="887410044#1" to="949044322"/>
    <trip id="bus91" type="bus_bus" depart="294.51" departLane="best" from="392180545#7" to="471658993"/>
    <trip id="bus92" type="bus_bus" depart="297.74" departLane="best" departSpeed="max" from="-469074089#1" to="-542622654#2"/>
    <trip id="bus93" type="bus_bus" depart="300.98" departLane="best" from="889589486#9" to="468783439#2"/>
    <trip id="bus94" type="bus_bus" depart="304.21" departLane="best" from="385977216#5" to="480539966#0"/>
    <trip id="bus95" type="bus_bus" depart="307.45" departLane="best" from="-392180545#6" to="469004817"/>
    <trip id="bus96" type="bus_bus" depart="310.69" departLane="best" from="119010367#0" to="553614797#2"/>
    <trip id="bus97" type="bus_bus" depart="313.92" departLane="best" from="-469074093#2" to="887409093"/>
    <trip id="bus98" type="bus_bus" depart="317.16" departLane="best" from="404178421#5" to="469158233#3"/>
    <trip id="bus99" type="bus_bus" depart="320.40" departLane="best" from="-469158248" to="-468783439#3"/>
    <trip id="bus100" type="bus_bus" depart="323.63" departLane="best" from="606024806#0" to="-476021739#6"/>
    <trip id="bus101" type="bus_bus" depart="326.87" departLane="best" from="404178421#4" to="469074099#0"/>
    <trip id="bus102" type="bus_bus" depart="330.11" departLane="best" departSpeed="max" from="-746033030" to="468783446"/>
    <trip id="bus103" type="bus_bus" depart="333.34" departLane="best" from="330084824#1" to="749707934#3"/>
    <trip id="bus104" type="bus_bus" depart="336.58" departLane="best" from="-469929212#2" to="-887410042"/>
    <trip id="bus105" type="bus_bus" depart="339.81" departLane="best" from="469158201#0" to="-553591193#0"/>
    <trip id="bus106" type="bus_bus" depart="343.05" departLane="best" departSpeed="max" from="-542622637" to="480539969#0"/>
    <trip id="bus107" type="bus_bus" depart="346.29" departLane="best" from="-392180556#1" to="150999761#1"/>
    <trip id="bus108" type="bus_bus" depart="349.52" departLane="best" from="949044355#0" to="949044326#1"/>
    <trip id="bus109" type="bus_bus" depart="352.76" departLane="best" from="-392180558#0" to="-469929212#1"/>
    <trip id="bus110" type="bus_bus" depart="356.00" departLane="best" from="-471719156#2" to="749707934#1"/>
    <trip id="bus111" type="bus_bus" depart="359.23" departLane="best" from="-553614802#1" to="-469124633#2"/>
    <trip id="bus112" type="bus_bus" depart="362.47" departLane="best" from="553591165#0" to="469934362#4"/>
    <trip id="bus113" type="bus_bus" depart="365.71" departLane="best" from="468783413#2" to="942801979#0"/>
    <trip id="bus115" type="bus_bus" depart="372.18" departLane="best" from="542622653#0" to="-553591190#3"/>
    <trip id="bus116" type="bus_bus" depart="375.41" departLane="best" from="469124633#1" to="867910968#1"/>
    <trip id="bus117" type="bus_bus" depart="378.65" departLane="best" from="-468783404#1" to="435784043#0"/>
    <trip id="bus118" type="bus_bus" depart="381.89" departLane="best" departSpeed="max" from="-471721996" to="469074089#1"/>
    <trip id="bus119" type="bus_bus" depart="385.12" departLane="best" from="469004852" to="-542622631#3"/>
    <trip id="bus120" type="bus_bus" depart="388.36" departLane="best" from="-949044313#1" to="745539606#0"/>
    <trip id="bus121" type="bus_bus" depart="391.60" departLane="best" from="-746033032#4" to="-542622640#0"/>
    <trip id="bus123" type="bus_bus" depart="398.07" departLane="best" from="469074074" to="-542622631#0"/>
    <trip id="bus124" type="bus_bus" depart="401.30" departLane="best" from="470605351#2" to="404178425"/>
    <trip id="bus125" type="bus_bus" depart="404.54" departLane="best" from="-747964664" to="-119001261#2"/>
    <trip id="bus126" type="bus_bus" depart="407.78" departLane="best" from="-392180559#1" to="563903802#0"/>
    <trip id="bus127" type="bus_bus" depart="411.01" departLane="best" from="745539602#1" to="401441826#2"/>
    <trip id="bus129" type="bus_bus" depart="417.49" departLane="best" from="-469074077#2" to="-469004840"/>
    <trip id="bus130" type="bus_bus" depart="420.72" departLane="best" from="-542622635" to="745539601#1"/>
    <trip id="bus131" type="bus_bus" depart="423.96" departLane="best" from="542622636#1" to="553614800#3"/>
    <trip id="bus132" type="bus_bus" depart="427.20" departLane="best" from="745539598#0" to="-469158244"/>
    <trip id="bus133" type="bus_bus" depart="430.43" departLane="best" from="-470298776#2" to="-468783411#0"/>
    <trip id="bus135" type="bus_bus" depart="436.90" departLane="best" from="-745539606#3" to="469074099#2"/>
    <trip id="bus136" type="bus_bus" depart="440.14" departLane="best" from="553614800#0" to="889589487#6"/>
    <trip id="bus137" type="bus_bus" depart="443.38" departLane="best" from="542622646#4" to="553615630#2"/>
    <trip id="bus138" type="bus_bus" depart="446.61" departLane="best" from="-330084824#13" to="476021739#3"/>
    <trip id="bus139" type="bus_bus" depart="449.85" departLane="best" from="-542622646#3" to="747964670"/>
    <trip id="bus140" type="bus_bus" depart="453.09" departLane="best" from="542622640#3" to="553614801#3"/>
    <trip id="bus141" type="bus_bus" depart="456.32" departLane="best" from="542622646#4" to="-542622631#8"/>
    <trip id="bus142" type="bus_bus" depart="459.56" departLane="best" from="542622631#3" to="-468783419"/>
    <trip id="bus143" type="bus_bus" depart="462.79" departLane="best" from="-469158233#1" to="553591148"/>
    <trip id="bus144" type="bus_bus" depart="466.03" departLane="best" from="-887410044#2" to="-553614797#4"/>
    <trip id="bus145" type="bus_bus" depart="469.27" departLane="best" from="542622636#0" to="-470605351#1"/>
    <trip id="bus146" type="bus_bus" depart="472.50" departLane="best" from="-330084824#10" to="-469158224#0"/>
    <trip id="bus147" type="bus_bus" depart="475.74" departLane="best" from="-542622644#0" to="553614801#3"/>
    <trip id="bus148" type="bus_bus" depart="478.98" departLane="best" from="889589492#1" to="392180566#0"/>
    <trip id="bus149" type="bus_bus" depart="482.21" departLane="best" departSpeed="max" from="867910973#0" to="-468783431#1"/>
    <trip id="bus150" type="bus_bus" depart="485.45" departLane="best" departSpeed="max" from="887744048#0" to="-542622631#5"/>
    <trip id="bus152" type="bus_bus" depart="491.92" departLane="best" from="469929216#1" to="-553614801#2"/>
    <trip id="bus153" type="bus_bus" depart="495.16" departLane="best" from="468783408#0" to="392180550#1"/>
    <trip id="bus154" type="bus_bus" depart="498.39" departLane="best" from="-563903803#0" to="468783435#1"/>
    <trip id="bus156" type="bus_bus" depart="504.87" departLane="best" from="470605351#3" to="469158230#2"/>
    <trip id="bus157" type="bus_bus" depart="508.10" departLane="best" from="-553614800#5" to="-392180561#0"/>
    <trip id="bus158" type="bus_bus" depart="511.34" departLane="best" from="469124633#2" to="-563903803#1"/>
    <trip id="bus159" type="bus_bus" depart="514.58" departLane="best" departSpeed="max" from="-542622637" to="553592343#3"/>
    <trip id="bus160" type="bus_bus" depart="517.81" departLane="best" from="469158244" to="-553591193#0"/>
    <trip id="bus161" type="bus_bus" depart="521.05" departLane="best" from="-542622636#1" to="-889589486#9"/>
    <trip id="bus162" type="bus_bus" depart="524.29" departLane="best" from="-468783439#4" to="-889589493#0"/>
    <trip id="bus163" type="bus_bus" depart="527.52" departLane="best" departSpeed="max" from="867910973#0" to="469158238#1"/>
    <trip id="bus164" type="bus_bus" depart="530.76" departLane="best" from="745539602#0" to="469074096#4"/>
    <trip id="bus165" type="bus_bus" depart="533.99" departLane="best" from="-542622631#3" to="404178421#0"/>
    <trip id="bus166" type="bus_bus" depart="537.23" departLane="best" from="-1030345537" to="-542622646#4"/>
    <trip id="bus167" type="bus_bus" depart="540.47" departLane="best" from="-747964667" to="468783439#3"/>
    <trip id="bus168" type="bus_bus" depart="543.70" departLane="best" from="469074095" to="330084824#12"/>
    <trip id="bus169" type="bus_bus" depart="546.94" departLane="best" from="-867910972#0" to="-469929212#1"/>
    <trip id="bus170" type="bus_bus" depart="550.18" departLane="best" from="-889589488#1" to="745539602#1"/>
    <trip id="bus171" type="bus_bus" depart="553.41" departLane="best" from="542622636#1" to="-469158202#1"/>
    <trip id="bus172" type="bus_bus" depart="556.65" departLane="best" from="469004845#2" to="-612344427#0"/>
    <trip id="bus173" type="bus_bus" depart="559.88" departLane="best" from="542622654#0" to="480539968#1"/>
    <trip id="bus174" type="bus_bus" depart="563.12" departLane="best" from="469158201#2" to="-470298776#2"/>
    <trip id="bus175" type="bus_bus" depart="566.36" departLane="best" departSpeed="max" from="-469158216" to="-330084819#2"/>
    <trip id="bus176" type="bus_bus" depart="569.59" departLane="best" from="-469929500" to="37396815#0"/>
    <trip id="bus177" type="bus_bus" depart="572.83" departLane="best" from="553591196#5" to="-392180561#5"/>
    <trip id="bus178" type="bus_bus" depart="576.07" departLane="best" departSpeed="max" from="-746033029" to="469124635#9"/>
    <trip id="bus179" type="bus_bus" depart="579.30" departLane="best" departSpeed="max" from="-469158214" to="469929216#1"/>
    <trip id="bus182" type="bus_bus" depart="589.01" departLane="best" from="471719156#4" to="542622632#5"/>
    <trip id="bus183" type="bus_bus" depart="592.25" departLane="best" from="-468783404#0" to="-948982084#3"/>
    <trip id="bus184" type="bus_bus" depart="595.48" departLane="best" from="-469124635#6" to="886931959#1"/>
    <trip id="bus185" type="bus_bus" depart="598.72" departLane="best" departSpeed="max" from="330084819#0" to="-392180251#0"/>
    <trip id="bus186" type="bus_bus" depart="601.96" departLane="best" from="-470298776#1" to="553592343#4"/>
    <trip id="bus187" type="bus_bus" depart="605.19" departLane="best" departSpeed="max" from="-886096276" to="542622648"/>
    <trip id="bus188" type="bus_bus" depart="608.43" departLane="best" from="469124635#3" to="942801979#1"/>
    <trip id="bus190" type="bus_bus" depart="614.90" departLane="best" from="720844404#0" to="477948309#0"/>
    <trip id="bus191" type="bus_bus" depart="618.14" departLane="best" from="-889589489#1" to="-480539969#0"/>
    <trip id="bus192" type="bus_bus" depart="621.38" departLane="best" from="-469934362#3" to="469158210#0"/>
    <trip id="bus193" type="bus_bus" depart="624.61" departLane="best" from="477948309#3" to="392180554"/>
    <trip id="bus194" type="bus_bus" depart="627.85" departLane="best" from="468783444#1" to="-542622639#0"/>
    <trip id="bus195" type="bus_bus" depart="631.08" departLane="best" from="-392180561#3" to="-542622646#2"/>
    <trip id="bus196" type="bus_bus" depart="634.32" departLane="best" departSpeed="max" from="-471721996" to="-553614805#1"/>
    <trip id="bus197" type="bus_bus" depart="637.56" departLane="best" from="385977216#2" to="-469074077#1"/>
    <trip id="bus198" type="bus_bus" depart="640.79" departLane="best" from="-469158242" to="469929212#1"/>
    <trip id="bus199" type="bus_bus" depart="644.03" departLane="best" from="469158231" to="-392180555#0"/>
    <trip id="bus200" type="bus_bus" depart="647.27" departLane="best" from="-745539608" to="392180568#2"/>
    <trip id="bus201" type="bus_bus" depart="650.50" departLane="best" departSpeed="max" from="-746033029" to="-469158238#1"/>
    <trip id="bus202" type="bus_bus" depart="653.74" departLane="best" departSpeed="max" from="-746033030" to="745539605#2"/>
    <trip id="bus203" type="bus_bus" depart="656.97" departLane="best" from="392180566#2" to="469929216#0"/>
    <trip id="bus204" type="bus_bus" depart="660.21" departLane="best" from="553592344#2" to="542622631#6"/>
    <trip id="bus206" type="bus_bus" depart="666.68" departLane="best" departSpeed="max" from="-553591193#2" to="480539971#0"/>
    <trip id="bus207" type="bus_bus" depart="669.92" departLane="best" from="553592343#3" to="867910979#1"/>
    <trip id="bus208" type="bus_bus" depart="673.16" departLane="best" departSpeed="max" from="-746033030" to="480539965#1"/>
    <trip id="bus209" type="bus_bus" depart="676.39" departLane="best" from="392047451" to="469074087#1"/>
    <trip id="bus210" type="bus_bus" depart="679.63" departLane="best" from="-469158232#2" to="-469929467#1"/>
    <trip id="bus211" type="bus_bus" depart="682.87" departLane="best" from="-783529733" to="-330084824#3"/>
    <trip id="bus212" type="bus_bus" depart="686.10" departLane="best" from="-542622651#0" to="469158240"/>
    <trip id="bus213" type="bus_bus" depart="689.34" departLane="best" from="-745539606#0" to="-469124635#9"/>
    <trip id="bus214" type="bus_bus" depart="692.57" departLane="best" from="-889589486#9" to="-469004840"/>
    <trip id="bus215" type="bus_bus" depart="695.81" departLane="best" from="468783439#0" to="-330084824#10"/>
    <trip id="bus216" type="bus_bus" depart="699.05" departLane="best" from="-720844404#0" to="468783406#3"/>
    <trip id="bus217" type="bus_bus" depart="702.28" departLane="best" from="-330084824#4" to="469158210#7"/>
    <trip id="bus218" type="bus_bus" depart="705.52" departLane="best" departSpeed="max" from="-469004817" to="173556974"/>
    <trip id="bus219" type="bus_bus" depart="708.76" departLane="best" from="-392180545#10" to="-867910972#3"/>
    <trip id="bus220" type="bus_bus" depart="711.99" departLane="best" from="-469158224#0" to="-553615630#3"/>
    <trip id="bus221" type="bus_bus" depart="715.23" departLane="best" from="476021742" to="-867910972#3"/>
    <trip id="bus222" type="bus_bus" depart="718.46" departLane="best" from="471721994" to="553591178#7"/>
    <trip id="bus223" type="bus_bus" depart="721.70" departLane="best" departSpeed="max" from="-470298779" to="-392180568#2"/>
    <trip id="bus224" type="bus_bus" depart="724.94" departLane="best" from="-119010369#5" to="392180567#1"/>
    <trip id="bus225" type="bus_bus" depart="728.17" departLane="best" from="949044361#1" to="-745539606#2"/>
    <trip id="bus226" type="bus_bus" depart="731.41" departLane="best" departSpeed="max" from="469074090" to="542622637"/>
    <trip id="bus227" type="bus_bus" depart="734.65" departLane="best" from="-119010369#6" to="-469074099#2"/>
    <trip id="bus228" type="bus_bus" depart="737.88" departLane="best" from="-468783439#3" to="469158230#0"/>
    <trip id="bus229" type="bus_bus" depart="741.12" departLane="best" from="392180550#0" to="-469929466#3"/>
    <trip id="bus230" type="bus_bus" depart="744.36" departLane="best" from="469158224#1" to="542622631#8"/>
    <trip id="bus231" type="bus_bus" depart="747.59" departLane="best" from="471658993" to="-468783431#0"/>
    <trip id="bus232" type="bus_bus" depart="750.83" departLane="best" from="542622654#1" to="887410044#3"/>
    <trip id="bus233" type="bus_bus" depart="754.06" departLane="best" from="-468783406#0" to="-330084824#0"/>
    <trip id="bus234" type="bus_bus" depart="757.30" departLane="best" departSpeed="max" from="-542622636#3" to="469158238#1"/>
    <trip id="bus235" type="bus_bus" depart="760.54" departLane="best" from="469158219#0" to="469124635#4"/>
    <trip id="bus236" type="bus_bus" depart="763.77" departLane="best" from="-435784043#0" to="542622633"/>
    <trip id="bus237" type="bus_bus" depart="767.01" departLane="best" from="553591196#6" to="469074078"/>
    <trip id="bus238" type="bus_bus" depart="770.25" departLane="best" from="-468783431#0" to="889589492#1"/>
    <trip id="bus240" type="bus_bus" depart="776.72" departLane="best" from="-747964665" to="-749707934#4"/>
    <trip id="bus241" type="bus_bus" depart="779.96" departLane="best" from="119010369#0" to="-745539598#1"/>
    <trip id="bus242" type="bus_bus" depart="783.19" departLane="best" from="553591196#4" to="553591156#1"/>
    <trip id="bus243" type="bus_bus" depart="786.43" departLane="best" from="-468783394" to="887409093"/>
    <trip id="bus244" type="bus_bus" depart="789.66" departLane="best" from="469074067#1" to="553591178#2"/>
    <trip id="bus246" type="bus_bus" depart="796.14" departLane="best" from="469934362#1" to="887742278"/>
    <trip id="bus247" type="bus_bus" depart="799.37" departLane="best" from="-471721994" to="542622654#2"/>
    <trip id="bus248" type="bus_bus" depart="802.61" departLane="best" from="37398225#9" to="385977216#1"/>
    <trip id="bus249" type="bus_bus" depart="805.85" departLane="best" from="-783529733" to="471724762"/>
    <trip id="bus250" type="bus_bus" depart="809.08" departLane="best" departSpeed="max" from="-471720027" to="553592344#3"/>
    <trip id="bus252" type="bus_bus" depart="815.55" departLane="best" from="553615628#3" to="-476021739#3"/>
    <trip id="bus253" type="bus_bus" depart="818.79" departLane="best" from="-889589486#5" to="469074093#4"/>
    <trip id="bus254" type="bus_bus" depart="822.03" departLane="best" from="-553615628#4" to="-330084824#2"/>
    <trip id="bus255" type="bus_bus" depart="825.26" departLane="best" from="553591205" to="-469158215#2"/>
    <trip id="bus256" type="bus_bus" depart="828.50" departLane="best" from="-469158224#1" to="542622646#2"/>
    <trip id="bus257" type="bus_bus" depart="831.74" departLane="best" from="-542622653#0" to="553615630#0"/>
    <trip id="bus258" type="bus_bus" depart="834.97" departLane="best" from="469158227#0" to="-542622639#2"/>
    <trip id="bus259" type="bus_bus" depart="838.21" departLane="best" from="-119001261#2" to="867910973#6"/>
    <trip id="bus261" type="bus_bus" depart="844.68" departLane="best" from="-392185782" to="-469934362#2"/>
    <trip id="bus262" type="bus_bus" depart="847.92" departLane="best" from="469158220#0" to="-553614798#1"/>
    <trip id="bus264" type="bus_bus" depart="854.39" departLane="best" from="37396815#0" to="-948982084#3"/>
    <trip id="bus265" type="bus_bus" depart="857.63" departLane="best" from="469158227#3" to="-542622632#5"/>
    <trip id="bus266" type="bus_bus" depart="860.86" departLane="best" from="37398225#5" to="542622631#0"/>
    <trip id="bus267" type="bus_bus" depart="864.10" departLane="best" from="-469158208#2" to="-469929216#2"/>
    <trip id="bus268" type="bus_bus" depart="867.34" departLane="best" departSpeed="max" from="-942801979#1" to="471720027"/>
    <trip id="bus269" type="bus_bus" depart="870.57" departLane="best" from="889589489#0" to="392180558#0"/>
    <trip id="bus270" type="bus_bus" depart="873.81" departLane="best" from="-476021739#6" to="-468783406#2"/>
    <trip id="bus271" type="bus_bus" depart="877.04" departLane="best" departSpeed="max" from="-469158214" to="-470605351#0"/>
    <trip id="bus272" type="bus_bus" depart="880.28" departLane="best" from="-469158201#2" to="-119010369#0"/>
    <trip id="bus273" type="bus_bus" depart="883.52" departLane="best" from="37398225#2" to="-542622638#1"/>
    <trip id="bus274" type="bus_bus" depart="886.75" departLane="best" from="889589488#0" to="435784043#2"/>
    <trip id="bus275" type="bus_bus" depart="889.99" departLane="best" from="469158221#3" to="-469004816"/>
    <trip id="bus276" type="bus_bus" depart="893.23" departLane="best" from="553614801#1" to="392180249#1"/>
    <trip id="bus278" type="bus_bus" depart="899.70" departLane="best" from="-469158208#1" to="-392180544"/>
    <trip id="bus279" type="bus_bus" depart="902.94" departLane="best" departSpeed="max" from="542686773#0" to="-887744048#0"/>