<?xml version="1.0" encoding="UTF-8"?>

<!-- generated on 2022-05-11 22:07:20 by Eclipse SUMO duarouter Version 1.13.0
<configuration xmlns:xsi="http://www.w3.org/2001/XMLSchema-instance" xsi:noNamespaceSchemaLocation="http://sumo.dlr.de/xsd/duarouterConfiguration.xsd">

    <input>
        <net-file value="C:\Users\ths06\Desktop\2022-1\Reinforcement_Learning-Prof.Lee\Project\sumo\2022-05-11-22-06-49\osm.net.xml"/>
        <route-files value="C:\Users\ths06\Desktop\2022-1\Reinforcement_Learning-Prof.Lee\Project\sumo\2022-05-11-22-06-49\osm.motorcycle.trips.xml"/>
    </input>

    <output>
        <output-file value="C:\Users\ths06\Desktop\2022-1\Reinforcement_Learning-Prof.Lee\Project\sumo\2022-05-11-22-06-49\osm.motorcycle.trips.xml.tmp"/>
        <write-trips value="true"/>
    </output>

    <time>
        <begin value="0"/>
        <end value="1800"/>
    </time>

    <report>
        <no-warnings value="true"/>
        <ignore-errors value="true"/>
        <no-step-log value="true"/>
    </report>

</configuration>
-->

<routes xmlns:xsi="http://www.w3.org/2001/XMLSchema-instance" xsi:noNamespaceSchemaLocation="http://sumo.dlr.de/xsd/routes_file.xsd">
    <vType id="moto_motorcycle" vClass="motorcycle"/>
    <trip id="moto0" type="moto_motorcycle" depart="0.00" departLane="best" from="-471719156#2" to="-469158235"/>
    <trip id="moto1" type="moto_motorcycle" depart="2.80" departLane="best" from="606024805" to="-392180550#4"/>
    <trip id="moto2" type="moto_motorcycle" depart="5.60" departLane="best" from="-469158219#0" to="119010369#3"/>
    <trip id="moto3" type="moto_motorcycle" depart="8.40" departLane="best" from="469074067#1" to="392180545#0"/>
    <trip id="moto4" type="moto_motorcycle" depart="11.20" departLane="best" from="-392180550#0" to="-392180561#4"/>
    <trip id="moto5" type="moto_motorcycle" depart="14.00" departLane="best" from="542622641#1" to="469934362#1"/>
    <trip id="moto6" type="moto_motorcycle" depart="16.80" departLane="best" from="469158220#4" to="-119010369#7"/>
    <trip id="moto7" type="moto_motorcycle" depart="19.60" departLane="best" from="-392180555#2" to="-480539969#1"/>
    <trip id="moto8" type="moto_motorcycle" depart="22.40" departLane="best" from="-553615628#0" to="-469158221#4"/>
    <trip id="moto9" type="moto_motorcycle" depart="25.20" departLane="best" from="469074076#6" to="-867910966"/>
    <trip id="moto10" type="moto_motorcycle" depart="28.00" departLane="best" from="-470605351#0" to="-470605351#2"/>
    <trip id="moto11" type="moto_motorcycle" depart="30.80" departLane="best" from="392180553#0" to="720844404#0"/>
    <trip id="moto12" type="moto_motorcycle" depart="33.60" departLane="best" from="542622631#5" to="-889589486#2"/>
    <trip id="moto13" type="moto_motorcycle" depart="36.40" departLane="best" from="-330084824#8" to="-747964663"/>
    <trip id="moto14" type="moto_motorcycle" depart="39.20" departLane="best" from="949044355#1" to="37398225#3"/>
    <trip id="moto15" type="moto_motorcycle" depart="42.00" departLane="best" from="889589487#2" to="553614798#0"/>
    <trip id="moto16" type="moto_motorcycle" depart="44.80" departLane="best" from="-470605351#3" to="469074078"/>
    <trip id="moto17" type="moto_motorcycle" depart="47.60" departLane="best" from="-480539967#0" to="469074077#0"/>
    <trip id="moto18" type="moto_motorcycle" depart="50.40" departLane="best" from="404178421#0" to="-469074070"/>
    <trip id="moto19" type="moto_motorcycle" depart="53.20" departLane="best" from="476021735#0" to="392047450#2"/>
    <trip id="moto20" type="moto_motorcycle" depart="56.00" departLane="best" from="480539967#0" to="37398225#5"/>
    <trip id="moto21" type="moto_motorcycle" depart="58.80" departLane="best" from="553614805#2" to="867910973#1"/>
    <trip id="moto22" type="moto_motorcycle" depart="61.60" departLane="best" from="-470605351#0" to="553614802#2"/>
    <trip id="moto23" type="moto_motorcycle" depart="64.40" departLane="best" from="-469158204" to="-542622651#6"/>
    <trip id="moto24" type="moto_motorcycle" depart="67.20" departLane="best" departSpeed="max" from="949044343" to="469074096#0"/>
    <trip id="moto25" type="moto_motorcycle" depart="70.01" departLane="best" from="-469158227#1" to="-469158232#3"/>
    <trip id="moto26" type="moto_motorcycle" depart="72.81" departLane="best" from="-37398225#8" to="469074067#0"/>
    <trip id="moto27" type="moto_motorcycle" depart="75.61" departLane="best" from="-469158226" to="745539602#2"/>
    <trip id="moto28" type="moto_motorcycle" depart="78.41" departLane="best" from="-469158215#1" to="-468783414"/>
    <trip id="moto29" type="moto_motorcycle" depart="81.21" departLane="best" from="783529734#6" to="392180559#0"/>
    <trip id="moto30" type="moto_motorcycle" depart="84.01" departLane="best" from="542622641#2" to="-469158208#2"/>
    <trip id="moto31" type="moto_motorcycle" depart="86.81" departLane="best" from="469158243#4" to="469158210#1"/>
    <trip id="moto32" type="moto_motorcycle" depart="89.61" departLane="best" from="553614797#4" to="-470605354"/>
    <trip id="moto33" type="moto_motorcycle" depart="92.41" departLane="best" from="37398225#11" to="-330084824#1"/>
    <trip id="moto34" type="moto_motorcycle" depart="95.21" departLane="best" from="-470605351#0" to="542622631#8"/>
    <trip id="moto35" type="moto_motorcycle" depart="98.01" departLane="best" from="-889589486#4" to="-889589486#4"/>
    <trip id="moto36" type="moto_motorcycle" depart="100.81" departLane="best" from="385977216#0" to="469158246"/>
    <trip id="moto37" type="moto_motorcycle" depart="103.61" departLane="best" from="330084824#3" to="471719156#4"/>
    <trip id="moto38" type="moto_motorcycle" depart="106.41" departLane="best" from="-330084824#0" to="392180567#1"/>
    <trip id="moto39" type="moto_motorcycle" depart="109.21" departLane="best" from="392180563#1" to="469158210#3"/>
    <trip id="moto40" type="moto_motorcycle" depart="112.01" departLane="best" from="563903803#0" to="-470605351#1"/>
    <trip id="moto41" type="moto_motorcycle" depart="114.81" departLane="best" from="-747964669" to="392180567#1"/>
    <trip id="moto42" type="moto_motorcycle" depart="117.61" departLane="best" from="-469158210#0" to="469158243#4"/>
    <trip id="moto43" type="moto_motorcycle" depart="120.41" departLane="best" from="-469158235" to="-867910967"/>
    <trip id="moto44" type="moto_motorcycle" depart="123.21" departLane="best" from="469074099#3" to="-542622643"/>
    <trip id="moto45" type="moto_motorcycle" depart="126.01" departLane="best" from="949044357#4" to="949044355#1"/>
    <trip id="moto46" type="moto_motorcycle" depart="128.81" departLane="best" from="-470605351#0" to="749707934#3"/>
    <trip id="moto47" type="moto_motorcycle" depart="131.61" departLane="best" from="469074076#2" to="-1009111691#0"/>
    <trip id="moto48" type="moto_motorcycle" depart="134.41" departLane="best" departSpeed="max" from="469074090" to="867910966"/>
    <trip id="moto49" type="moto_motorcycle" depart="137.21" departLane="best" from="-468783404#0" to="-404178421#5"/>
    <trip id="moto50" type="moto_motorcycle" depart="140.01" departLane="best" from="-392180561#3" to="392180547#1"/>
    <trip id="moto51" type="moto_motorcycle" depart="142.81" departLane="best" from="-471293181" to="468783406#0"/>
    <trip id="moto52" type="moto_motorcycle" depart="145.61" departLane="best" from="469158232#0" to="-469158220#0"/>
    <trip id="moto53" type="moto_motorcycle" depart="148.41" departLane="best" from="542622632#3" to="553614798#0"/>
    <trip id="moto54" type="moto_motorcycle" depart="151.21" departLane="best" from="720844404#0" to="-469158222"/>
    <trip id="moto55" type="moto_motorcycle" depart="154.01" departLane="best" from="553614798#3" to="889589488#0"/>
    <trip id="moto56" type="moto_motorcycle" depart="156.81" departLane="best" from="553614801#3" to="553614797#3"/>
    <trip id="moto57" type="moto_motorcycle" depart="159.61" departLane="best" from="889589487#1" to="-469124635#2"/>
    <trip id="moto58" type="moto_motorcycle" depart="162.41" departLane="best" departSpeed="max" from="887744048#0" to="-476021740#1"/>
    <trip id="moto59" type="moto_motorcycle" depart="165.21" departLane="best" from="-612344427#1" to="392180563#2"/>
    <trip id="moto60" type="moto_motorcycle" depart="168.01" departLane="best" from="-553614802#0" to="-392047448"/>
    <trip id="moto61" type="moto_motorcycle" depart="170.81" departLane="best" from="469074091" to="-553614800#4"/>
    <trip id="moto62" type="moto_motorcycle" depart="173.61" departLane="best" from="-542622636#1" to="553591196#2"/>
    <trip id="moto63" type="moto_motorcycle" depart="176.41" departLane="best" from="745539600#0" to="468783429#0"/>
    <trip id="moto64" type="moto_motorcycle" depart="179.21" departLane="best" from="-480539969#0" to="392180545#12"/>
    <trip id="moto65" type="moto_motorcycle" depart="182.01" departLane="best" from="-867910966" to="392180565#0"/>
    <trip id="moto66" type="moto_motorcycle" depart="184.81" departLane="best" from="469074076#4" to="1009111691#2"/>
    <trip id="moto67" type="moto_motorcycle" depart="187.61" departLane="best" from="-867910975#0" to="-469158227#1"/>
    <trip id="moto68" type="moto_motorcycle" depart="190.41" departLane="best" from="542622632#3" to="-469074096#1"/>
    <trip id="moto69" type="moto_motorcycle" depart="193.21" departLane="best" from="-392180545#1" to="330084824#1"/>
    <trip id="moto70" type="moto_motorcycle" depart="196.01" departLane="best" from="468783426" to="-553614802#1"/>
    <trip id="moto71" type="moto_motorcycle" depart="198.81" departLane="best" from="469074076#7" to="-1009111689#1"/>
    <trip id="moto72" type="moto_motorcycle" depart="201.61" departLane="best" from="470605351#3" to="480539966#1"/>
    <trip id="moto73" type="moto_motorcycle" depart="204.42" departLane="best" from="-469929212#0" to="553591196#3"/>
    <trip id="moto74" type="moto_motorcycle" depart="207.22" departLane="best" from="-889589486#6" to="542622640#5"/>
    <trip id="moto75" type="moto_motorcycle" depart="210.02" departLane="best" from="392180563#2" to="867910973#6"/>
    <trip id="moto76" type="moto_motorcycle" depart="212.82" departLane="best" from="606024803" to="468783413#2"/>
    <trip id="moto77" type="moto_motorcycle" depart="215.62" departLane="best" from="469158232#3" to="119010369#2"/>
    <trip id="moto78" type="moto_motorcycle" depart="218.42" departLane="best" from="612344427#3" to="471293180#3"/>
    <trip id="moto79" type="moto_motorcycle" depart="221.22" departLane="best" from="-948982084#0" to="-476021735#1"/>
    <trip id="moto80" type="moto_motorcycle" depart="224.02" departLane="best" from="-469580585" to="469074076#6"/>
    <trip id="moto81" type="moto_motorcycle" depart="226.82" departLane="best" from="468783411#3" to="-480539966#1"/>
    <trip id="moto82" type="moto_motorcycle" depart="229.62" departLane="best" from="-469158228" to="469158221#4"/>
    <trip id="moto83" type="moto_motorcycle" depart="232.42" departLane="best" from="469158221#1" to="-37398225#9"/>
    <trip id="moto84" type="moto_motorcycle" depart="235.22" departLane="best" departSpeed="max" from="-746033029" to="392180250"/>
    <trip id="moto85" type="moto_motorcycle" depart="238.02" departLane="best" from="-747964663" to="-469158220#5"/>
    <trip id="moto86" type="moto_motorcycle" depart="240.82" departLane="best" from="-747964670" to="745539602#1"/>
    <trip id="moto87" type="moto_motorcycle" depart="243.62" departLane="best" from="392180552" to="469158224#0"/>
    <trip id="moto88" type="moto_motorcycle" depart="246.42" departLane="best" from="-606024805" to="-1009111689#1"/>
    <trip id="moto89" type="moto_motorcycle" depart="249.22" departLane="best" from="-747964668" to="471719156#2"/>
    <trip id="moto90" type="moto_motorcycle" depart="252.02" departLane="best" from="-469158220#2" to="-469158232#1"/>
    <trip id="moto91" type="moto_motorcycle" depart="254.82" departLane="best" departSpeed="max" from="-746033026" to="-469074090"/>
    <trip id="moto92" type="moto_motorcycle" depart="257.62" departLane="best" from="-745539601#2" to="392180553#2"/>
    <trip id="moto93" type="moto_motorcycle" depart="260.42" departLane="best" from="-469158213" to="-553614798#5"/>
    <trip id="moto94" type="moto_motorcycle" depart="263.22" departLane="best" from="471721994" to="-746033033"/>
    <trip id="moto95" type="moto_motorcycle" depart="266.02" departLane="best" from="469074070" to="542622631#3"/>
    <trip id="moto96" type="moto_motorcycle" depart="268.82" departLane="best" from="469074075" to="476021735#0"/>
    <trip id="moto97" type="moto_motorcycle" depart="271.62" departLane="best" from="867910973#7" to="-469158215#1"/>
    <trip id="moto98" type="moto_motorcycle" depart="274.42" departLane="best" from="-404178421#3" to="469158202#1"/>
    <trip id="moto99" type="moto_motorcycle" depart="277.22" departLane="best" from="392180249#2" to="-469158231"/>
    <trip id="moto100" type="moto_motorcycle" depart="280.02" departLane="best" from="-469074076#2" to="468783408#0"/>
    <trip id="moto101" type="moto_motorcycle" depart="282.82" departLane="best" from="470298781" to="-404178421#4"/>
    <trip id="moto102" type="moto_motorcycle" depart="285.62" departLane="best" from="542622651#4" to="887744048#1"/>
    <trip id="moto103" type="moto_motorcycle" depart="288.42" departLane="best" from="-542622632#5" to="469158210#6"/>
    <trip id="moto104" type="moto_motorcycle" depart="291.22" departLane="best" from="887410043#0" to="-867910968#0"/>
    <trip id="moto105" type="moto_motorcycle" depart="294.02" departLane="best" from="469158230#0" to="-392180544"/>
    <trip id="moto106" type="moto_motorcycle" depart="296.82" departLane="best" from="469158210#10" to="469004817"/>
    <trip id="moto107" type="moto_motorcycle" depart="299.62" departLane="best" from="-392180556#1" to="480539968#1"/>
    <trip id="moto108" type="moto_motorcycle" depart="302.42" departLane="best" from="553591196#1" to="542686779"/>
    <trip id="moto109" type="moto_motorcycle" depart="305.22" departLane="best" from="-392180561#0" to="887410043#1"/>
    <trip id="moto111" type="moto_motorcycle" depart="310.82" departLane="best" from="-471293180#0" to="542622646#1"/>
    <trip id="moto113" type="moto_motorcycle" depart="316.42" departLane="best" from="-470605354" to="553592343#0"/>
    <trip id="moto114" type="moto_motorcycle" depart="319.22" departLane="best" from="-889589488#2" to="468783411#3"/>
    <trip id="moto115" type="moto_motorcycle" depart="322.02" departLane="best" from="553591196#3" to="-469124635#7"/>
    <trip id="moto116" type="moto_motorcycle" depart="324.82" departLane="best" from="-542622653#1" to="553615628#0"/>
    <trip id="moto117" type="moto_motorcycle" depart="327.62" departLane="best" from="469158219#0" to="-480539968#0"/>
    <trip id="moto118" type="moto_motorcycle" depart="330.42" departLane="best" from="-392180550#0" to="-469158233#1"/>
    <trip id="moto119" type="moto_motorcycle" depart="333.22" departLane="best" from="469158210#3" to="-542622646#6"/>
    <trip id="moto120" type="moto_motorcycle" depart="336.02" departLane="best" departSpeed="max" from="-469074098" to="-469158230#0"/>
    <trip id="moto121" type="moto_motorcycle" depart="338.82" departLane="best" from="-476021735#2" to="-392180564#1"/>
    <trip id="moto122" type="moto_motorcycle" depart="341.63" departLane="best" from="-469074093#2" to="-1009111706#1"/>
    <trip id="moto123" type="moto_motorcycle" depart="344.43" departLane="best" from="469158215#0" to="-468783408#0"/>
    <trip id="moto124" type="moto_motorcycle" depart="347.23" departLane="best" from="-889589492#0" to="-948982082"/>
    <trip id="moto125" type="moto_motorcycle" depart="350.03" departLane="best" departSpeed="max" from="-469074098" to="-330084824#10"/>
    <trip id="moto126" type="moto_motorcycle" depart="352.83" departLane="best" from="392047451" to="-542622646#2"/>
    <trip id="moto127" type="moto_motorcycle" depart="355.63" departLane="best" from="542622631#3" to="-469158239"/>
    <trip id="moto128" type="moto_motorcycle" depart="358.43" departLane="best" from="468783406#0" to="468783411#2"/>
    <trip id="moto129" type="moto_motorcycle" depart="361.23" departLane="best" from="469074086#1" to="-469074076#5"/>
    <trip id="moto130" type="moto_motorcycle" depart="364.03" departLane="best" from="-469074081#0" to="-392180251#2"/>
    <trip id="moto132" type="moto_motorcycle" depart="369.63" departLane="best" from="-469158229" to="469158233#3"/>
    <trip id="moto133" type="moto_motorcycle" depart="372.43" departLane="best" from="-469074074" to="-542622648"/>
    <trip id="moto134" type="moto_motorcycle" depart="375.23" departLane="best" from="867910972#1" to="119010367#2"/>
    <trip id="moto135" type="moto_motorcycle" depart="378.03" departLane="best" from="1009111703#0" to="-392180545#4"/>
    <trip id="moto137" type="moto_motorcycle" depart="383.63" departLane="best" from="-392180545#9" to="887410044#1"/>
    <trip id="moto138" type="moto_motorcycle" depart="386.43" departLane="best" from="867910975#0" to="949044361#1"/>
    <trip id="moto139" type="moto_motorcycle" depart="389.23" departLane="best" from="392180555#0" to="469074076#0"/>
    <trip id="moto140" type="moto_motorcycle" depart="392.03" departLane="best" from="1009111691#0" to="-392180556#1"/>
    <trip id="moto141" type="moto_motorcycle" depart="394.83" departLane="best" from="-542622646#0" to="469158221#3"/>
    <trip id="moto142" type="moto_motorcycle" depart="397.63" departLane="best" from="542622646#3" to="392180545#5"/>
    <trip id="moto143" type="moto_motorcycle" depart="400.43" departLane="best" departSpeed="max" from="-542622640#5" to="889589486#8"/>
    <trip id="moto144" type="moto_motorcycle" depart="403.23" departLane="best" from="330084824#3" to="-887409091"/>
    <trip id="moto145" type="moto_motorcycle" depart="406.03" departLane="best" from="-469074099#3" to="-745539601#0"/>
    <trip id="moto146" type="moto_motorcycle" depart="408.83" departLane="best" from="471719156#4" to="-469158220#0"/>
    <trip id="moto147" type="moto_motorcycle" depart="411.63" departLane="best" from="37398225#1" to="747964667"/>
    <trip id="moto148" type="moto_motorcycle" depart="414.43" departLane="best" from="-867910973#2" to="469158227#1"/>
    <trip id="moto149" type="moto_motorcycle" depart="417.23" departLane="best" from="37398225#4" to="-392180559#1"/>
    <trip id="moto150" type="moto_motorcycle" depart="420.03" departLane="best" from="37398225#3" to="-747964667"/>
    <trip id="moto151" type="moto_motorcycle" depart="422.83" departLane="best" from="-747964662" to="783529733"/>
    <trip id="moto153" type="moto_motorcycle" depart="428.43" departLane="best" from="37398225#4" to="392180251#2"/>
    <trip id="moto154" type="moto_motorcycle" depart="431.23" departLane="best" from="-889589486#4" to="-553614797#1"/>
    <trip id="moto156" type="moto_motorcycle" depart="436.83" departLane="best" from="392180559#1" to="553614801#3"/>
    <trip id="moto157" type="moto_motorcycle" depart="439.63" departLane="best" from="119010369#0" to="1009111687#3"/>
    <trip id="moto158" type="moto_motorcycle" depart="442.43" departLane="best" from="469158237" to="-867910975#1"/>
    <trip id="moto159" type="moto_motorcycle" depart="445.23" departLane="best" from="469074076#5" to="-469074076#0"/>
    <trip id="moto160" type="moto_motorcycle" depart="448.03" departLane="best" from="-889589492#1" to="889589486#7"/>
    <trip id="moto161" type="moto_motorcycle" depart="450.83" departLane="best" from="553591196#6" to="553614797#4"/>
    <trip id="moto162" type="moto_motorcycle" depart="453.63" departLane="best" from="-37398225#3" to="469074067#0"/>
    <trip id="moto163" type="moto_motorcycle" depart="456.43" departLane="best" departSpeed="max" from="-392180554" to="469074074"/>
    <trip id="moto164" type="moto_motorcycle" depart="459.23" departLane="best" from="469158210#6" to="745539601#2"/>
    <trip id="moto165" type="moto_motorcycle" depart="462.03" departLane="best" from="-469074076#6" to="-392180545#2"/>
    <trip id="moto166" type="moto_motorcycle" depart="464.83" departLane="best" from="553614801#1" to="468783435#3"/>
    <trip id="moto167" type="moto_motorcycle" depart="467.63" departLane="best" from="745539598#0" to="469158210#7"/>
    <trip id="moto168" type="moto_motorcycle" depart="470.43" departLane="best" from="-468783446" to="-948982084#1"/>
    <trip id="moto169" type="moto_motorcycle" depart="473.23" departLane="best" from="468783439#1" to="-889589486#6"/>
    <trip id="moto170" type="moto_motorcycle" depart="476.04" departLane="best" from="392180545#6" to="392180561#5"/>
    <trip id="moto171" type="moto_motorcycle" depart="478.84" departLane="best" from="889589489#1" to="469124634#0"/>
    <trip id="moto172" type="moto_motorcycle" depart="481.64" departLane="best" from="-471719156#1" to="392180554"/>
    <trip id="moto173" type="moto_motorcycle" depart="484.44" departLane="best" departSpeed="max" from="1009111706#0" to="745539602#0"/>
    <trip id="moto174" type="moto_motorcycle" depart="487.24" departLane="best" from="468783435#2" to="468783439#1"/>
    <trip id="moto175" type="moto_motorcycle" depart="490.04" departLane="best" from="469124635#2" to="469929207#1"/>
    <trip id="moto176" type="moto_motorcycle" depart="492.84" departLane="best" from="468783413#1" to="745539601#2"/>
    <trip id="moto177" type="moto_motorcycle" depart="495.64" departLane="best" from="-867910973#6" to="392180565#0"/>
    <trip id="moto178" type="moto_motorcycle" depart="498.44" departLane="best" from="-469074087#1" to="-468783414"/>
    <trip id="moto179" type="moto_motorcycle" depart="501.24" departLane="best" from="889589486#4" to="553614797#5"/>
    <trip id="moto180" type="moto_motorcycle" depart="504.04" departLane="best" from="889589486#5" to="542622643"/>
    <trip id="moto181" type="moto_motorcycle" depart="506.84" departLane="best" from="-889589486#3" to="469158210#0"/>
    <trip id="moto182" type="moto_motorcycle" depart="509.64" departLane="best" from="392047450#0" to="746033026"/>
    <trip id="moto183" type="moto_motorcycle" depart="512.44" departLane="best" from="-469158220#3" to="-37398225#7"/>
    <trip id="moto184" type="moto_motorcycle" depart="515.24" departLane="best" from="-480539970" to="-867910973#7"/>
    <trip id="moto185" type="moto_motorcycle" depart="518.04" departLane="best" from="-468783411#0" to="867910972#5"/>
    <trip id="moto186" type="moto_motorcycle" depart="520.84" departLane="best" from="469074099#1" to="471293180#2"/>
    <trip id="moto187" type="moto_motorcycle" depart="523.64" departLane="best" from="867910973#1" to="-887410044#3"/>
    <trip id="moto188" type="moto_motorcycle" depart="526.44" departLane="best" from="-747964661" to="-392180563#2"/>
    <trip id="moto189" type="moto_motorcycle" depart="529.24" departLane="best" from="1009111689#0" to="-867910973#7"/>
    <trip id="moto190" type="moto_motorcycle" depart="532.04" departLane="best" from="-392180555#0" to="469158218#0"/>
    <trip id="moto191" type="moto_motorcycle" depart="534.84" departLane="best" from="-553614800#3" to="-867910970#0"/>
    <trip id="moto192" type="moto_motorcycle" depart="537.64" departLane="best" from="-469124634#0" to="-468783404#0"/>
    <trip id="moto193" type="moto_motorcycle" depart="540.44" departLane="best" departSpeed="max" from="469074090" to="469074080"/>
    <trip id="moto194" type="moto_motorcycle" depart="543.24" departLane="best" from="-404178421#2" to="392180553#2"/>
    <trip id="moto195" type="moto_motorcycle" depart="546.04" departLane="best" from="-469158210#4" to="-469158229"/>
    <trip id="moto196" type="moto_motorcycle" depart="548.84" departLane="best" from="553614800#5" to="-553614800#2"/>
    <trip id="moto197" type="moto_motorcycle" depart="551.64" departLane="best" from="-468783429#0" to="745539598#1"/>
    <trip id="moto198" type="moto_motorcycle" depart="554.44" departLane="best" from="-468783414" to="-468783411#4"/>
    <trip id="moto199" type="moto_motorcycle" depart="557.24" departLane="best" from="-469074086#1" to="-330084824#13"/>
    <trip id="moto200" type="moto_motorcycle" depart="560.04" departLane="best" from="-392180563#1" to="119010369#0"/>
    <trip id="moto201" type="moto_motorcycle" depart="562.84" departLane="best" departSpeed="max" from="867910973#0" to="-119010369#2"/>
    <trip id="moto202" type="moto_motorcycle" depart="565.64" departLane="best" from="480539971#1" to="553614800#5"/>
    <trip id="moto203" type="moto_motorcycle" depart="568.44" departLane="best" from="119001261#1" to="1009111689#0"/>
    <trip id="moto204" type="moto_motorcycle" depart="571.24" departLane="best" from="-392180249#2" to="468783411#0"/>
    <trip id="moto205" type="moto_motorcycle" depart="574.04" departLane="best" from="-37398225#1" to="-480539967#0"/>
    <trip id="moto206" type="moto_motorcycle" depart="576.84" departLane="best" from="468783429#0" to="392180545#2"/>
    <trip id="moto207" type="moto_motorcycle" depart="579.64" departLane="best" from="-542622641#1" to="949044326#4"/>
    <trip id="moto208" type="moto_motorcycle" depart="582.44" departLane="best" from="469074071" to="480539966#0"/>
    <trip id="moto209" type="moto_motorcycle" depart="585.24" departLane="best" from="469158233#3" to="-469158228"/>
    <trip id="moto210" type="moto_motorcycle" depart="588.04" departLane="best" from="-887410044#2" to="-469158248"/>
    <trip id="moto211" type="moto_motorcycle" depart="590.84" departLane="best" from="-747964663" to="-392180561#1"/>
    <trip id="moto212" type="moto_motorcycle" depart="593.64" departLane="best" from="-783529734#3" to="469124635#9"/>
    <trip id="moto213" type="moto_motorcycle" depart="596.44" departLane="best" from="747964663" to="-385977216#3"/>
    <trip id="moto214" type="moto_motorcycle" depart="599.24" departLane="best" from="-392180553#0" to="470605351#3"/>
    <trip id="moto215" type="moto_motorcycle" depart="602.04" departLane="best" from="542622646#0" to="392180547#6"/>
    <trip id="moto216" type="moto_motorcycle" depart="604.84" departLane="best" from="392180555#2" to="392180550#4"/>
    <trip id="moto217" type="moto_motorcycle" depart="607.64" departLane="best" from="-542622646#0" to="-468783404#1"/>
    <trip id="moto218" type="moto_motorcycle" depart="610.44" departLane="best" from="-553614798#0" to="469124635#9"/>
    <trip id="moto219" type="moto_motorcycle" depart="613.25" departLane="best" from="470605351#2" to="553614801#0"/>
    <trip id="moto220" type="moto_motorcycle" depart="616.05" departLane="best" from="392180566#1" to="-606024806#2"/>
    <trip id="moto221" type="moto_motorcycle" depart="618.85" departLane="best" from="392180547#7" to="-469158226"/>
    <trip id="moto222" type="moto_motorcycle" depart="621.65" departLane="best" from="469074077#0" to="-469158238#0"/>
    <trip id="moto223" type="moto_motorcycle" depart="624.45" departLane="best" from="392180547#0" to="542622646#0"/>
    <trip id="moto224" type="moto_motorcycle" depart="627.25" departLane="best" from="-470605352#0" to="-469124635#5"/>
    <trip id="moto225" type="moto_motorcycle" depart="630.05" departLane="best" from="553614801#0" to="392180555#0"/>
    <trip id="moto226" type="moto_motorcycle" depart="632.85" departLane="best" departSpeed="max" from="-553614809#1" to="469929212#0"/>
    <trip id="moto227" type="moto_motorcycle" depart="635.65" departLane="best" from="480539965#1" to="392180555#2"/>
    <trip id="moto228" type="moto_motorcycle" depart="638.45" departLane="best" from="-392180545#10" to="-330084824#13"/>
    <trip id="moto229" type="moto_motorcycle" depart="641.25" departLane="best" from="-468783444#2" to="468783435#0"/>
    <trip id="moto230" type="moto_motorcycle" depart="644.05" departLane="best" from="-867910973#8" to="-480539965#1"/>
    <trip id="moto231" type="moto_motorcycle" depart="646.85" departLane="best" from="-867910966" to="-542622631#5"/>
    <trip id="moto232" type="moto_motorcycle" depart="649.65" departLane="best" from="469074095" to="-119010369#7"/>
    <trip id="moto233" type="moto_motorcycle" depart="652.45" departLane="best" from="-469158211" to="-468783429#1"/>
    <trip id="moto234" type="moto_motorcycle" depart="655.25" departLane="best" from="-469929467#0" to="-553614800#1"/>
    <trip id="moto235" type="moto_motorcycle" depart="658.05" departLane="best" from="-469074089#0" to="-747964661"/>
    <trip id="moto236" type="moto_motorcycle" depart="660.85" departLane="best" from="-37398225#9" to="553614798#2"/>
    <trip id="moto237" type="moto_motorcycle" depart="663.65" departLane="best" from="746033033" to="553614798#3"/>
    <trip id="moto238" type="moto_motorcycle" depart="666.45" departLane="best" from="392180547#3" to="392180561#1"/>
    <trip id="moto239" type="moto_motorcycle" depart="669.25" departLane="best" from="469158224#0" to="-887410044#1"/>
    <trip id="moto240" type="moto_motorcycle" depart="672.05" departLane="best" from="-542622641#1" to="542622640#5"/>
    <trip id="moto241" type="moto_motorcycle" depart="674.85" departLane="best" from="468783394" to="553591165#0"/>
    <trip id="moto242" type="moto_motorcycle" depart="677.65" departLane="best" from="746033032#4" to="-392180553#0"/>
    <trip id="moto244" type="moto_motorcycle" depart="683.25" departLane="best" from="-745539603" to="-542622651#3"/>
    <trip id="moto245" type="moto_motorcycle" depart="686.05" departLane="best" from="745539602#1" to="-606024803"/>
    <trip id="moto246" type="moto_motorcycle" depart="688.85" departLane="best" from="542622646#5" to="-469929466#3"/>
    <trip id="moto247" type="moto_motorcycle" depart="691.65" departLane="best" from="-468783424#2" to="-469158211"/>
    <trip id="moto248" type="moto_motorcycle" depart="694.45" departLane="best" from="-887410043#0" to="746033034"/>